
 Fire Dynamics Simulator

 Current Date     : December 20, 2017  13:50:12
 Version          : FDS 6.5.0
 Revision         : Git-r14-0-gec73757
 Revision Date    : Wed Jun 22 17:26:26 2016 -0400
 Compilation Date : Wed 06/22/2016  09:31 PM

 MPI Enabled; Number of MPI Processes:     1
 OpenMP Enabled; Number of OpenMP Threads:   4

 MPI version: 3.0
 MPI library version: Intel(R) MPI Library 5.1.3 for Windows* OS


 Job TITLE        : fives
 Job ID string    : fives


 Grid Dimensions, Mesh     1

   Cells in the X Direction           123
   Cells in the Y Direction            68
   Cells in the Z Direction            56


 Physical Dimensions, Mesh     1

   Length (m)                      24.600
   Width  (m)                      13.600
   Height (m)                      11.200
   Initial Time Step (s)            0.075

 Grid Dimensions, Mesh     2

   Cells in the X Direction           116
   Cells in the Y Direction            68
   Cells in the Z Direction            37


 Physical Dimensions, Mesh     2

   Length (m)                      23.200
   Width  (m)                      13.600
   Height (m)                       7.400
   Initial Time Step (s)            0.075

 Grid Dimensions, Mesh     3

   Cells in the X Direction            21
   Cells in the Y Direction            16
   Cells in the Z Direction            37


 Physical Dimensions, Mesh     3

   Length (m)                       4.200
   Width  (m)                       3.200
   Height (m)                       7.400
   Initial Time Step (s)            0.075

 Grid Dimensions, Mesh     4

   Cells in the X Direction            21
   Cells in the Y Direction            16
   Cells in the Z Direction            37


 Physical Dimensions, Mesh     4

   Length (m)                       4.200
   Width  (m)                       3.200
   Height (m)                       7.400
   Initial Time Step (s)            0.075

 Grid Dimensions, Mesh     5

   Cells in the X Direction            21
   Cells in the Y Direction            36
   Cells in the Z Direction            20


 Physical Dimensions, Mesh     5

   Length (m)                       4.200
   Width  (m)                       7.200
   Height (m)                       4.000
   Initial Time Step (s)            0.075

 Grid Dimensions, Mesh     6

   Cells in the X Direction            25
   Cells in the Y Direction            68
   Cells in the Z Direction            20


 Physical Dimensions, Mesh     6

   Length (m)                       5.000
   Width  (m)                      13.600
   Height (m)                       4.000
   Initial Time Step (s)            0.075

 Grid Dimensions, Mesh     7

   Cells in the X Direction           126
   Cells in the Y Direction            13
   Cells in the Z Direction            68


 Physical Dimensions, Mesh     7

   Length (m)                      25.600
   Width  (m)                       2.600
   Height (m)                      13.600
   Initial Time Step (s)            0.075

 Grid Dimensions, Mesh     8

   Cells in the X Direction           126
   Cells in the Y Direction            13
   Cells in the Z Direction            68


 Physical Dimensions, Mesh     8

   Length (m)                      25.600
   Width  (m)                       2.600
   Height (m)                      13.600
   Initial Time Step (s)            0.075


 Miscellaneous Parameters

   Simulation Start Time (s)          0.0
   Simulation End Time (s)         1800.0
   LES Calculation
   Deardorff Model (C_DEARDORFF)     0.10
   Turbulent Prandtl Number          0.50
   Turbulent Schmidt Number          0.50
   Ambient Temperature (C)          20.00


 Mass Fraction Transformation Matrix to Convert Species Mixtures (Columns) to Primitive Species (Rows)

                         AIR       METHANE   PRODUCTS
   METHANE               0.000000  1.000000  0.000000
   NITROGEN              0.763077  0.000000  0.718407
   OXYGEN                0.231181  0.000000  0.000000
   CARBON DIOXIDE        0.000592  0.000000  0.139898
   CARBON MONOXIDE       0.000000  0.000000  0.000000
   WATER VAPOR           0.005149  0.000000  0.135841
   SOOT                  0.000000  0.000000  0.005854


 Primitive Species Information

   METHANE
   Gas Species
   Molecular Weight (g/mol)            16.04246
   Ambient Density (kg/m^3)            0.667
   Enthalpy of Formation (J/kg)       -4.67E+06

   NITROGEN
   Gas Species
   Molecular Weight (g/mol)            28.01340
   Ambient Density (kg/m^3)            1.165
   Enthalpy of Formation (J/kg)        0.00E+00

   OXYGEN
   Gas Species
   Molecular Weight (g/mol)            31.99880
   Ambient Density (kg/m^3)            1.330
   Enthalpy of Formation (J/kg)        0.00E+00

   CARBON DIOXIDE
   Gas Species
   Molecular Weight (g/mol)            44.00950
   Ambient Density (kg/m^3)            1.830
   Enthalpy of Formation (J/kg)       -8.94E+06

   CARBON MONOXIDE
   Gas Species
   Molecular Weight (g/mol)            28.01010
   Ambient Density (kg/m^3)            1.164
   Enthalpy of Formation (J/kg)       -3.95E+06

   WATER VAPOR
   Gas Species
   Molecular Weight (g/mol)            18.01528
   Ambient Density (kg/m^3)            0.749
   Enthalpy of Formation (J/kg)       -1.34E+07

   SOOT
   Gas Species
   Molecular Weight (g/mol)            10.91042
   Ambient Density (kg/m^3)            0.454
   Enthalpy of Formation (J/kg)        0.00E+00


 Tracked (Lumped) Species Information

   AIR
   Molecular Weight (g/mol)            28.76564
   Ambient Density (kg/m^3)            1.196
   Initial Mass Fraction               1.000
   Enthalpy of Formation (J/kg)     -7.44E+04

   Sub Species                    Mass Fraction     Mole Fraction
   NITROGEN                       7.630774E-01      7.835682E-01
   OXYGEN                         2.311814E-01      2.078229E-01
   CARBON DIOXIDE                 5.919362E-04      3.869034E-04
   WATER VAPOR                    5.149269E-03      8.222023E-03
 
   Viscosity (kg/m/s)   Ambient (293 K):  1.80E-05
                                  500 K:  2.61E-05
                                 1000 K:  4.13E-05
                                 1500 K:  5.37E-05
   Therm. Cond. (W/m/K) Ambient (293 K):  2.56E-02
                                  500 K:  3.81E-02
                                 1000 K:  6.68E-02
                                 1500 K:  9.24E-02
   Spec. Heat (J/kg/K)  Ambient (293 K):  1.02E+03
                                  500 K:  1.04E+03
                                 1000 K:  1.16E+03
                                 1500 K:  1.23E+03
   Diff. Coeff. (m^2/s) Ambient (293 K):  1.99E-05
                                  500 K:  4.96E-05
                                 1000 K:  1.58E-04
                                 1500 K:  3.09E-04

   METHANE
   Molecular Weight (g/mol)            16.04246
   Ambient Density (kg/m^3)            0.667
   Initial Mass Fraction               0.000
   Enthalpy of Formation (J/kg)     -4.67E+06

   Sub Species                    Mass Fraction     Mole Fraction
   METHANE                        1.000000E+00      1.000000E+00
 
   Viscosity (kg/m/s)   Ambient (293 K):  1.10E-05
                                  500 K:  1.68E-05
                                 1000 K:  2.73E-05
                                 1500 K:  3.56E-05
   Therm. Cond. (W/m/K) Ambient (293 K):  3.47E-02
                                  500 K:  6.96E-02
                                 1000 K:  1.79E-01
                                 1500 K:  2.88E-01
   Spec. Heat (J/kg/K)  Ambient (293 K):  2.21E+03
                                  500 K:  2.90E+03
                                 1000 K:  4.59E+03
                                 1500 K:  5.66E+03
   Diff. Coeff. (m^2/s) Ambient (293 K):  2.15E-05
                                  500 K:  5.44E-05
                                 1000 K:  1.75E-04
                                 1500 K:  3.43E-04

   PRODUCTS
   Molecular Weight (g/mol)            27.09967
   Ambient Density (kg/m^3)            1.127
   Initial Mass Fraction               0.000
   Enthalpy of Formation (J/kg)     -3.07E+06

   Sub Species                    Mass Fraction     Mole Fraction
   NITROGEN                       7.184072E-01      6.949746E-01
   CARBON DIOXIDE                 1.398976E-01      8.614456E-02
   CARBON MONOXIDE                0.000000E+00      0.000000E+00
   WATER VAPOR                    1.358412E-01      2.043406E-01
   SOOT                           5.853947E-03      1.454023E-02
 
   Viscosity (kg/m/s)   Ambient (293 K):  1.59E-05
                                  500 K:  2.36E-05
                                 1000 K:  3.87E-05
                                 1500 K:  5.13E-05
   Therm. Cond. (W/m/K) Ambient (293 K):  2.34E-02
                                  500 K:  3.63E-02
                                 1000 K:  6.80E-02
                                 1500 K:  9.83E-02
   Spec. Heat (J/kg/K)  Ambient (293 K):  1.12E+03
                                  500 K:  1.17E+03
                                 1000 K:  1.33E+03
                                 1500 K:  1.45E+03
   Diff. Coeff. (m^2/s) Ambient (293 K):  1.98E-05
                                  500 K:  5.04E-05
                                 1000 K:  1.63E-04
                                 1500 K:  3.21E-04


 Gas Phase Reaction Information

   Fuel                                           Heat of Combustion (kJ/kg)
   METHANE                                                        46653.4633

   Stoichiometry

   Primitive Species
   Species ID                                                 Stoich. Coeff.
   METHANE                                                         -1.000000
   NITROGEN                                                         0.000000
   OXYGEN                                                          -1.863990
   CARBON DIOXIDE                                                   0.867666
   WATER VAPOR                                                      1.992648
   SOOT                                                             0.147038

   Tracked (Lumped) Species
   Species ID                                                 Stoich. Coeff.
   AIR                                                             -8.969129
   METHANE                                                         -1.000000
   PRODUCTS                                                        10.112491

   Reaction Kinetics

   Arrhenius Parameters
   Pre-exponential:    Infinite
   Activation Energy:  N/A

   ODE Solver:  EXPLICIT EULER
   Extinction Model:  EXTINCTION 2
   Ignition Temperature (K):            0.0
   Critical Flame Temperature (K):   1600.2


 Material Information


 Surface Conditions

   0 INERT (DEFAULT)

   1 FIRE
     HRR Per Unit Area (kW/m2)        600.0
     METHANE Mass Flux (kg/s/m2)   1.29E-02

   2 désenfumage quais plafond
     Volume Flow     (m^3/s)     1.20E+00
     AIR Mass Fraction         1.000

   3 désenfumage quais mur
     Volume Flow     (m^3/s)    -1.20E+00
     AIR Mass Fraction         1.000

   4 désenfumage intermédiare mur
     Volume Flow     (m^3/s)    -5.70E+00
     AIR Mass Fraction         1.000

   5 désenfumage intermédiare plafond
     Volume Flow     (m^3/s)    -5.70E+00
     AIR Mass Fraction         1.000

   6 OPEN
     Passive Vent to Atmosphere

   7 MIRROR
     Symmetry Plane

   8 INTERPOLATED

   9 PERIODIC

  10 HVAC

  11 MASSLESS TRACER

  12 DROPLET

  13 VEGETATION

  14 EVACUATION_OUTFLOW
     Normal Velocity (m/s)         0.000

  15 MASSLESS TARGET


 Device Coordinates

     1 Coords:     0.00     3.75     8.30, Make: null, ID: sortie niv -1 nord, Quantity: VOLUME FLOW
     2 Coords:     0.00     3.75     5.10, Make: null, ID: sortie niv -2 nord, Quantity: VOLUME FLOW
     3 Coords:     0.00    -5.15     8.30, Make: null, ID: sortie niv -1 sud, Quantity: VOLUME FLOW
     4 Coords:     0.00    -5.15     5.10, Make: null, ID: sortie niv -2 sud, Quantity: VOLUME FLOW
     5 Coords:    11.00    -5.25     3.40, Make: null, ID: escalier 1.2, Quantity: VOLUME FLOW
     6 Coords:    26.10    -5.25     3.40, Make: null, ID: escalier 2.2, Quantity: VOLUME FLOW
     7 Coords:    22.45    -5.25     3.40, Make: null, ID: escalier 2.2, Quantity: VOLUME FLOW
     8 Coords:    37.90    -5.25     3.40, Make: null, ID: escalier 3.2, Quantity: VOLUME FLOW
     9 Coords:    48.85    -5.25     3.40, Make: null, ID: escalier 4.2, Quantity: VOLUME FLOW
    10 Coords:    45.45    -5.25     3.40, Make: null, ID: escalier 4.2, Quantity: VOLUME FLOW
    11 Coords:    11.00     5.25     3.40, Make: null, ID: escalier 1.1, Quantity: VOLUME FLOW
    12 Coords:    26.10     5.25     3.40, Make: null, ID: escalier 2.1, Quantity: VOLUME FLOW
    13 Coords:    22.45     5.25     3.40, Make: null, ID: escalier 2.1, Quantity: VOLUME FLOW
    14 Coords:    37.90     5.25     3.40, Make: null, ID: escalier 3.1, Quantity: VOLUME FLOW
    15 Coords:    45.45     5.25     3.40, Make: null, ID: escalier 4.1, Quantity: VOLUME FLOW
    16 Coords:    48.85     5.25     3.40, Make: null, ID: escalier 4.1, Quantity: VOLUME FLOW


 Slice File Information, Mesh     1

   Sampling Interval (s)             1.800

   1 Nodes:   0 123  59  59   0  56, Quantity: TEMPERATURE
   2 Nodes:   0 123   9   9   0  56, Quantity: TEMPERATURE
   3 Nodes:   0 123  34  34   0  56, Quantity: TEMPERATURE
   4 Nodes:   0 123  47  47   0  56, Quantity: TEMPERATURE
   5 Nodes:   0 123  22  22   0  56, Quantity: TEMPERATURE
   6 Nodes:   0 123  59  59   0  56, Quantity: VELOCITY
   7 Nodes:   0 123   9   9   0  56, Quantity: VELOCITY
   8 Nodes:   0 123  34  34   0  56, Quantity: VELOCITY
   9 Nodes:   0 123  47  47   0  56, Quantity: VELOCITY
  10 Nodes:   0 123  22  22   0  56, Quantity: VELOCITY
  11 Nodes:   0 123  51  51   0  56, Quantity: VELOCITY
  12 Nodes:   0 123  18  18   0  56, Quantity: VELOCITY
  13 Nodes:   0 123   9   9   0  56, Quantity: VELOCITY
  14 Nodes:   0 123  55  55   0  56, Quantity: VELOCITY
  15 Nodes:   0 123  13  13   0  56, Quantity: VELOCITY


 Slice File Information, Mesh     2

   Sampling Interval (s)             1.800

   1 Nodes:   0 116  59  59   0  37, Quantity: TEMPERATURE
   2 Nodes:   0 116   9   9   0  37, Quantity: TEMPERATURE
   3 Nodes:   0 116  34  34   0  37, Quantity: TEMPERATURE
   4 Nodes:   0 116  47  47   0  37, Quantity: TEMPERATURE
   5 Nodes:   0 116  22  22   0  37, Quantity: TEMPERATURE
   6 Nodes:   0 116  59  59   0  37, Quantity: VELOCITY
   7 Nodes:   0 116   9   9   0  37, Quantity: VELOCITY
   8 Nodes:   0 116  34  34   0  37, Quantity: VELOCITY
   9 Nodes:   0 116  47  47   0  37, Quantity: VELOCITY
  10 Nodes:   0 116  22  22   0  37, Quantity: VELOCITY
  11 Nodes:   0 116  51  51   0  37, Quantity: VELOCITY
  12 Nodes:   0 116  18  18   0  37, Quantity: VELOCITY
  13 Nodes:   0 116   9   9   0  37, Quantity: VELOCITY
  14 Nodes:   0 116  55  55   0  37, Quantity: VELOCITY
  15 Nodes:   0 116  13  13   0  37, Quantity: VELOCITY


 Slice File Information, Mesh     3

   Sampling Interval (s)             1.800

   1 Nodes:   0  21   9   9   0  37, Quantity: TEMPERATURE
   2 Nodes:   0  21   9   9   0  37, Quantity: VELOCITY
   3 Nodes:   0  21   9   9   0  37, Quantity: VELOCITY
   4 Nodes:   0  21  13  13   0  37, Quantity: VELOCITY


 Slice File Information, Mesh     4

   Sampling Interval (s)             1.800

   1 Nodes:   0  21   7   7   0  37, Quantity: TEMPERATURE
   2 Nodes:   0  21   7   7   0  37, Quantity: VELOCITY
   3 Nodes:   0  21   3   3   0  37, Quantity: VELOCITY


 Slice File Information, Mesh     5

   Sampling Interval (s)             1.800

   1 Nodes:   0  21  18  18   0  20, Quantity: TEMPERATURE
   2 Nodes:   0  21  31  31   0  20, Quantity: TEMPERATURE
   3 Nodes:   0  21   6   6   0  20, Quantity: TEMPERATURE
   4 Nodes:   0  21  18  18   0  20, Quantity: VELOCITY
   5 Nodes:   0  21  31  31   0  20, Quantity: VELOCITY
   6 Nodes:   0  21   6   6   0  20, Quantity: VELOCITY
   7 Nodes:   0  21  35  35   0  20, Quantity: VELOCITY
   8 Nodes:   0  21   2   2   0  20, Quantity: VELOCITY


 Slice File Information, Mesh     6

   Sampling Interval (s)             1.800

   1 Nodes:   0  25  59  59   0  20, Quantity: TEMPERATURE
   2 Nodes:   0  25   9   9   0  20, Quantity: TEMPERATURE
   3 Nodes:   0  25  34  34   0  20, Quantity: TEMPERATURE
   4 Nodes:   0  25  47  47   0  20, Quantity: TEMPERATURE
   5 Nodes:   0  25  22  22   0  20, Quantity: TEMPERATURE
   6 Nodes:   0  25  59  59   0  20, Quantity: VELOCITY
   7 Nodes:   0  25   9   9   0  20, Quantity: VELOCITY
   8 Nodes:   0  25  34  34   0  20, Quantity: VELOCITY
   9 Nodes:   0  25  47  47   0  20, Quantity: VELOCITY
  10 Nodes:   0  25  22  22   0  20, Quantity: VELOCITY
  11 Nodes:   0  25  51  51   0  20, Quantity: VELOCITY
  12 Nodes:   0  25  18  18   0  20, Quantity: VELOCITY
  13 Nodes:   0  25   9   9   0  20, Quantity: VELOCITY
  14 Nodes:   0  25  55  55   0  20, Quantity: VELOCITY
  15 Nodes:   0  25  13  13   0  20, Quantity: VELOCITY


 Slice File Information, Mesh     7

   Sampling Interval (s)             1.800

   1 Nodes:   0 126  13  13   0  68, Quantity: TEMPERATURE
   2 Nodes:   0 126   1   1   0  68, Quantity: TEMPERATURE
   3 Nodes:   0 126  13  13   0  68, Quantity: VELOCITY
   4 Nodes:   0 126   1   1   0  68, Quantity: VELOCITY
   5 Nodes:   0 126   5   5   0  68, Quantity: VELOCITY
   6 Nodes:   0 126   9   9   0  68, Quantity: VELOCITY


 Slice File Information, Mesh     8

   Sampling Interval (s)             1.800

   1 Nodes:   0 126   7   7   0  68, Quantity: TEMPERATURE
   2 Nodes:   0 126   7   7   0  68, Quantity: VELOCITY
   3 Nodes:   0 126   7   7   0  68, Quantity: VELOCITY
   4 Nodes:   0 126  11  11   0  68, Quantity: VELOCITY


 Radiation Model Information

   Number of control angles  104
   Time step increment         3
   Angle increment             5
   Theta band N_phi   Solid angle
     1:        4  0.12
     2:       12  0.11
     3:       16  0.13
     4:       20  0.12
     5:       20  0.12
     6:       16  0.13
     7:       12  0.11
     8:        4  0.12
   Using gray gas absorption.
   Mean beam length  1.000 m
 
 

 Run Time Diagnostics

       Time Step       1   December 20, 2017  13:50:21
       Step Size:    0.754E-01 s, Total Time:       0.08 s
       Pressure Iterations:     10
       Maximum Velocity Error:  0.14E+00 on Mesh   1 at (  22  53  17)
       Maximum Pressure Error:  0.28E+00 on Mesh   1 at (  22  52  17)
       ---------------------------------------------------------------
       Mesh    1
       Max CFL number:  0.91E+00 at (  22,  18,  14)
       Max divergence:  0.87E-05 at (  28,  57,  18)
       Min divergence: -0.13E-03 at (  22,  52,  13)
       Max VN number:   0.57E-02 at (  51,  45,  27)
       Radiation Loss to Boundaries:        -0.002 kW
       Mesh    2
       Max CFL number:  0.74E-02 at (  79,   5,  26)
       Max divergence:  0.13E-05 at (  70,  20,  11)
       Min divergence: -0.13E-05 at (  26,  49,   6)
       Max VN number:   0.58E-02 at (  83,  47,  24)
       Radiation Loss to Boundaries:        -0.004 kW
       Mesh    3
       Max CFL number:  0.46E-01 at (  21,  13,  17)
       Max divergence:  0.26E-05 at (  21,  14,  13)
       Min divergence: -0.30E-05 at (  18,  12,  18)
       Max VN number:   0.50E-02 at (  10,   7,  19)
       Mesh    4
       Max CFL number:  0.46E-01 at (  21,   3,  17)
       Max divergence:  0.23E-05 at (  21,   6,  13)
       Min divergence: -0.35E-05 at (  18,   5,  18)
       Max VN number:   0.54E-02 at (  16,   8,  31)
       Mesh    5
       Max CFL number:  0.37E-01 at (  21,   1,  17)
       Max divergence:  0.20E-05 at (  21,  35,  12)
       Min divergence: -0.13E-05 at (  21,   6,  16)
       Max VN number:   0.52E-02 at (   4,  24,  11)
       Radiation Loss to Boundaries:        -0.002 kW
       Mesh    6
       Max CFL number:  0.45E+00 at (   9,  58,  17)
       Max divergence:  0.15E-03 at (   7,  13,  17)
       Min divergence: -0.14E-05 at (  10,  39,   6)
       Max VN number:   0.53E-02 at (  10,  39,   6)
       Radiation Loss to Boundaries:        -0.003 kW
       Mesh    7
       Max CFL number:  0.10E-01 at ( 126,   8,   4)
       Max divergence:  0.12E-05 at ( 123,   4,   8)
       Min divergence: -0.12E-05 at ( 125,  10,  19)
       Max VN number:   0.52E-02 at (  56,   3,  58)
       Mesh    8
       Max CFL number:  0.10E-01 at ( 126,  10,   7)
       Max divergence:  0.12E-05 at ( 118,   8,  22)
       Min divergence: -0.12E-05 at ( 117,   4,  12)
       Max VN number:   0.51E-02 at ( 102,   6,  42)
 
       Time Step       2   December 20, 2017  13:50:28
       Step Size:    0.647E-01 s, Total Time:       0.14 s
       Pressure Iterations:     10
       Maximum Velocity Error:  0.15E+00 on Mesh   6 at (   0  65  17)
       Maximum Pressure Error:  0.20E+00 on Mesh   1 at (  22  52  17)
       ---------------------------------------------------------------
       Mesh    1
       Max CFL number:  0.86E+00 at (  22,  19,  17)
       Max divergence:  0.13E-04 at (  41,  57,  20)
       Min divergence: -0.11E-03 at (  22,  52,  13)
       Max VN number:   0.35E+00 at (  22,  52,  14)
       Radiation Loss to Boundaries:        -0.002 kW
       Mesh    2
       Max CFL number:  0.14E-01 at (   1,  45,  12)
       Max divergence:  0.13E-05 at (  70,  20,  11)
       Min divergence: -0.14E-05 at ( 115,  63,  15)
       Max VN number:   0.49E-02 at (  83,  47,  24)
       Radiation Loss to Boundaries:        -0.004 kW
       Mesh    3
       Max CFL number:  0.51E-01 at (  21,  13,  17)
       Max divergence:  0.30E-05 at (  21,  14,  13)
       Min divergence: -0.75E-05 at (  18,  12,  18)
       Max VN number:   0.14E-01 at (  21,  13,  17)
       Mesh    4
       Max CFL number:  0.51E-01 at (  21,   4,  17)
       Max divergence:  0.28E-05 at (  21,   2,  12)
       Min divergence: -0.81E-05 at (  18,   5,  18)
       Max VN number:   0.15E-01 at (  21,   3,  17)
       Mesh    5
       Max CFL number:  0.38E-01 at (  21,  36,  17)
       Max divergence:  0.26E-05 at (  21,  35,  12)
       Min divergence: -0.12E-05 at (  17,  19,  10)
       Max VN number:   0.96E-02 at (  21,   1,  17)
       Radiation Loss to Boundaries:        -0.002 kW
       Mesh    6
       Max CFL number:  0.39E+00 at (   9,  58,  17)
       Max divergence:  0.54E-04 at (   7,  13,  16)
       Min divergence: -0.14E-05 at (  10,  39,   6)
       Max VN number:   0.20E+00 at (   9,  54,  17)
       Radiation Loss to Boundaries:        -0.003 kW
       Mesh    7
       Max CFL number:  0.13E-01 at ( 125,   6,  10)
       Max divergence:  0.13E-05 at ( 120,  11,  24)
       Min divergence: -0.12E-05 at (  30,   7,  60)
       Max VN number:   0.45E-02 at (  56,   3,  58)
       Mesh    8
       Max CFL number:  0.13E-01 at ( 125,  10,   7)
       Max divergence:  0.15E-05 at ( 118,   8,  22)
       Min divergence: -0.12E-05 at (  67,  10,  23)
       Max VN number:   0.44E-02 at ( 102,   6,  42)
 
       Time Step       3   December 20, 2017  13:50:34
       Step Size:    0.647E-01 s, Total Time:       0.20 s
       Pressure Iterations:     10
       Maximum Velocity Error:  0.17E+00 on Mesh   6 at (   0  65   4)
       Maximum Pressure Error:  0.12E+00 on Mesh   1 at (  22  52  17)
       ---------------------------------------------------------------
       Mesh    1
       Max CFL number:  0.90E+00 at (  22,  19,  17)
       Max divergence:  0.22E-04 at (  41,  57,  18)
       Min divergence: -0.97E-04 at (  23,  52,  13)
       Max VN number:   0.33E+00 at (  22,  52,  14)
       Radiation Loss to Boundaries:        -0.002 kW
       Mesh    2
       Max CFL number:  0.29E-01 at (   1,  45,   4)
       Max divergence:  0.14E-05 at (  87,  61,  27)
       Min divergence: -0.20E-05 at ( 115,  64,  19)
       Max VN number:   0.56E-02 at (   1,  44,   7)
       Radiation Loss to Boundaries:        -0.004 kW
       Mesh    3
       Max CFL number:  0.59E-01 at (  21,  13,  17)
       Max divergence:  0.29E-05 at (  21,  14,  13)
       Min divergence: -0.12E-04 at (  18,  12,  18)
       Max VN number:   0.15E-01 at (  18,   5,  17)
       Mesh    4
       Max CFL number:  0.59E-01 at (  21,   4,  17)
       Max divergence:  0.28E-05 at (  21,   2,  12)
       Min divergence: -0.12E-04 at (  18,   5,  18)
       Max VN number:   0.16E-01 at (  18,   5,  17)
       Mesh    5
       Max CFL number:  0.44E-01 at (  21,   1,  17)
       Max divergence:  0.27E-05 at (  21,  35,  12)
       Min divergence: -0.12E-05 at (  17,  19,  10)
       Max VN number:   0.98E-02 at (  21,   1,  17)
       Radiation Loss to Boundaries:        -0.002 kW
       Mesh    6
       Max CFL number:  0.39E+00 at (   9,  58,  17)
       Max divergence:  0.54E-04 at (   7,  13,  16)
       Min divergence: -0.19E-05 at (   2,  65,  17)
       Max VN number:   0.20E+00 at (   9,  54,  17)
       Radiation Loss to Boundaries:        -0.003 kW
       Mesh    7
       Max CFL number:  0.16E-01 at ( 125,   6,  10)
       Max divergence:  0.15E-05 at ( 122,   5,  32)
       Min divergence: -0.12E-05 at (  30,   7,  60)
       Max VN number:   0.49E-02 at ( 122,   5,  32)
       Mesh    8
       Max CFL number:  0.15E-01 at ( 125,  10,   7)
       Max divergence:  0.17E-05 at ( 118,   8,  22)
       Min divergence: -0.11E-05 at (  67,  10,  23)
       Max VN number:   0.44E-02 at ( 102,   6,  42)
 
       Time Step       4   December 20, 2017  13:50:40
       Step Size:    0.647E-01 s, Total Time:       0.27 s
       Pressure Iterations:     10
       Maximum Velocity Error:  0.19E+00 on Mesh   6 at (   0  65   4)
       Maximum Pressure Error:  0.84E-01 on Mesh   1 at (  22  50  17)
       ---------------------------------------------------------------
       Mesh    1
       Max CFL number:  0.89E+00 at (  23,  50,  17)
       Max divergence:  0.30E-04 at (  41,  57,  18)
       Min divergence: -0.89E-04 at (  23,  52,  13)
       Max VN number:   0.30E+00 at (  22,  52,  14)
       Radiation Loss to Boundaries:        -0.001 kW
       Mesh    2
       Max CFL number:  0.50E-01 at (   1,  45,   4)
       Max divergence:  0.25E-05 at ( 112,  14,  26)
       Min divergence: -0.33E-05 at ( 115,  64,  19)
       Max VN number:   0.10E-01 at (   1,  47,  13)
       Radiation Loss to Boundaries:        -0.003 kW
       Mesh    3
       Max CFL number:  0.69E-01 at (  18,  10,  17)
       Max divergence:  0.27E-05 at (  21,  14,  13)
       Min divergence: -0.15E-04 at (  18,  12,  18)
       Max VN number:   0.24E-01 at (  18,   5,  17)
       Mesh    4
       Max CFL number:  0.71E-01 at (  18,   5,  18)
       Max divergence:  0.25E-05 at (  21,   2,  12)
       Min divergence: -0.15E-04 at (  18,   5,  18)
       Max VN number:   0.22E-01 at (  18,   5,  17)
       Mesh    5
       Max CFL number:  0.48E-01 at (  21,   1,  17)
       Max divergence:  0.25E-05 at (  21,  35,  12)
       Min divergence: -0.12E-05 at (   4,   7,  16)
       Max VN number:   0.10E-01 at (  21,   1,  17)
       Radiation Loss to Boundaries:        -0.001 kW
       Mesh    6
       Max CFL number:  0.39E+00 at (   9,  58,  17)
       Max divergence:  0.53E-04 at (   7,  13,  16)
       Min divergence: -0.32E-05 at (   2,  65,  17)
       Max VN number:   0.19E+00 at (   9,  54,  17)
       Radiation Loss to Boundaries:        -0.002 kW
       Mesh    7
       Max CFL number:  0.16E-01 at ( 125,   6,  10)
       Max divergence:  0.18E-05 at (  93,   8,  12)
       Min divergence: -0.12E-05 at (  30,   7,  60)
       Max VN number:   0.52E-02 at ( 122,   5,  32)
       Mesh    8
       Max CFL number:  0.16E-01 at ( 125,  10,   7)
       Max divergence:  0.18E-05 at (  92,   9,  14)
       Min divergence: -0.12E-05 at ( 121,   7,  12)
       Max VN number:   0.45E-02 at ( 118,   8,  22)
 
       Time Step       5   December 20, 2017  13:50:46
       Step Size:    0.647E-01 s, Total Time:       0.33 s
       Pressure Iterations:     10
       Maximum Velocity Error:  0.19E+00 on Mesh   6 at (   0  65   4)
       Maximum Pressure Error:  0.72E-01 on Mesh   1 at (  22  17  17)
       ---------------------------------------------------------------
       Mesh    1
       Max CFL number:  0.90E+00 at (  24,  19,  16)
       Max divergence:  0.34E-04 at (  41,  57,  18)
       Min divergence: -0.85E-04 at (  23,  52,  13)
       Max VN number:   0.29E+00 at (  24,  19,  17)
       Radiation Loss to Boundaries:        -0.001 kW
       Mesh    2
       Max CFL number:  0.72E-01 at (   1,  45,   4)
       Max divergence:  0.39E-05 at ( 112,  14,  26)
       Min divergence: -0.52E-05 at ( 116,  64,  20)
       Max VN number:   0.17E-01 at (   1,  47,   4)
       Radiation Loss to Boundaries:        -0.003 kW
       Mesh    3
       Max CFL number:  0.78E-01 at (  18,  12,  18)
       Max divergence:  0.25E-05 at (  21,  14,  13)
       Min divergence: -0.18E-04 at (  18,  12,  18)
       Max VN number:   0.30E-01 at (  18,   5,  17)
       Mesh    4
       Max CFL number:  0.82E-01 at (  18,   5,  18)
       Max divergence:  0.24E-05 at (  21,   2,  12)
       Min divergence: -0.18E-04 at (  18,   5,  18)
       Max VN number:   0.27E-01 at (  18,   5,  17)
       Mesh    5
       Max CFL number:  0.50E-01 at (  21,   1,  17)
       Max divergence:  0.24E-05 at (  21,  35,  12)
       Min divergence: -0.12E-05 at (   4,   7,  16)
       Max VN number:   0.11E-01 at (  21,   1,  17)
       Radiation Loss to Boundaries:        -0.001 kW
       Mesh    6
       Max CFL number:  0.39E+00 at (   5,  54,  17)
       Max divergence:  0.54E-04 at (   7,  13,  16)
       Min divergence: -0.42E-05 at (   2,  65,  17)
       Max VN number:   0.19E+00 at (   9,  54,  17)
       Radiation Loss to Boundaries:        -0.002 kW
       Mesh    7
       Max CFL number:  0.16E-01 at (  95,  12,  13)
       Max divergence:  0.21E-05 at (  93,   5,  14)
       Min divergence: -0.12E-05 at (  30,   7,  60)
       Max VN number:   0.52E-02 at ( 122,   5,  32)
       Mesh    8
       Max CFL number:  0.15E-01 at ( 125,  10,   7)
       Max divergence:  0.21E-05 at (  92,   9,  14)
       Min divergence: -0.12E-05 at ( 121,   7,  12)
       Max VN number:   0.45E-02 at ( 118,   8,  22)
 
       Time Step       6   December 20, 2017  13:50:51
       Step Size:    0.647E-01 s, Total Time:       0.40 s
       Pressure Iterations:     10
       Maximum Velocity Error:  0.19E+00 on Mesh   6 at (   0  65   4)
       Maximum Pressure Error:  0.61E-01 on Mesh   1 at (  36   6  17)
       ---------------------------------------------------------------
       Mesh    1
       Max CFL number:  0.90E+00 at (  24,  50,  16)
       Max divergence:  0.36E-04 at (  63,  13,  16)
       Min divergence: -0.75E-04 at (  23,  17,  13)
       Max VN number:   0.27E+00 at (  22,  52,  14)
       Radiation Loss to Boundaries:        -0.001 kW
       Mesh    2
       Max CFL number:  0.91E-01 at (   1,  45,   4)
       Max divergence:  0.57E-05 at ( 112,  14,  26)
       Min divergence: -0.73E-05 at ( 116,  64,  20)
       Max VN number:   0.27E-01 at (   1,  47,   4)
       Radiation Loss to Boundaries:        -0.003 kW
       Mesh    3
       Max CFL number:  0.86E-01 at (  18,  12,  18)
       Max divergence:  0.24E-05 at (  21,  14,  13)
       Min divergence: -0.19E-04 at (  18,  12,  18)
       Max VN number:   0.34E-01 at (  18,   5,  17)
       Mesh    4
       Max CFL number:  0.89E-01 at (  18,   5,  18)
       Max divergence:  0.23E-05 at (  21,   2,  12)
       Min divergence: -0.20E-04 at (  18,   5,  18)
       Max VN number:   0.31E-01 at (  18,   5,  17)
       Mesh    5
       Max CFL number:  0.51E-01 at (  21,   1,  17)
       Max divergence:  0.23E-05 at (  21,  35,  12)
       Min divergence: -0.12E-05 at (  17,  19,  10)
       Max VN number:   0.11E-01 at (  21,   1,  17)
       Radiation Loss to Boundaries:        -0.001 kW
       Mesh    6
       Max CFL number:  0.39E+00 at (   5,  54,  17)
       Max divergence:  0.56E-04 at (   7,  13,  16)
       Min divergence: -0.48E-05 at (   2,  65,  17)
       Max VN number:   0.19E+00 at (   9,  54,  17)
       Radiation Loss to Boundaries:        -0.002 kW
       Mesh    7
       Max CFL number:  0.18E-01 at (  95,  12,  13)
       Max divergence:  0.24E-05 at (  93,   5,  14)
       Min divergence: -0.12E-05 at (  30,   7,  60)
       Max VN number:   0.52E-02 at ( 122,   5,  32)
       Mesh    8
       Max CFL number:  0.16E-01 at (  95,   6,  13)
       Max divergence:  0.24E-05 at (  85,   7,  55)
       Min divergence: -0.13E-05 at ( 121,   7,  12)
       Max VN number:   0.45E-02 at ( 118,   8,  22)
 
       Time Step       7   December 20, 2017  13:50:57
       Step Size:    0.647E-01 s, Total Time:       0.46 s
       Pressure Iterations:     10
       Maximum Velocity Error:  0.19E+00 on Mesh   6 at (   0  65   4)
       Maximum Pressure Error:  0.56E-01 on Mesh   1 at (  36   6  17)
       ---------------------------------------------------------------
       Mesh    1
       Max CFL number:  0.87E+00 at (  25,  19,  16)
       Max divergence:  0.43E-04 at (  63,  13,  16)
       Min divergence: -0.76E-04 at (  24,  52,  13)
       Max VN number:   0.27E+00 at (  25,  19,  17)
       Mesh    2
       Max CFL number:  0.10E+00 at (   1,  45,   4)
       Max divergence:  0.11E-04 at ( 116,  65,  34)
       Min divergence: -0.92E-05 at ( 116,  64,  20)
       Max VN number:   0.36E-01 at (   1,  47,   4)
       Radiation Loss to Boundaries:        -0.002 kW
       Mesh    3
       Max CFL number:  0.91E-01 at (  18,  12,  18)
       Max divergence:  0.23E-05 at (  21,  14,  13)
       Min divergence: -0.21E-04 at (  18,  12,  18)
       Max VN number:   0.36E-01 at (  18,   5,  17)
       Mesh    4
       Max CFL number:  0.95E-01 at (  18,   5,  18)
       Max divergence:  0.23E-05 at (  21,   2,  12)
       Min divergence: -0.21E-04 at (  18,   5,  18)
       Max VN number:   0.33E-01 at (  18,   5,  17)
       Mesh    5
       Max CFL number:  0.52E-01 at (  21,   1,  17)
       Max divergence:  0.23E-05 at (  21,  35,  12)
       Min divergence: -0.13E-05 at (  11,  34,  10)
       Max VN number:   0.11E-01 at (  21,   1,  17)
       Mesh    6
       Max CFL number:  0.39E+00 at (   5,  54,  17)
       Max divergence:  0.57E-04 at (   7,  56,  16)
       Min divergence: -0.51E-05 at (   2,  65,  17)
       Max VN number:   0.19E+00 at (   9,  54,  17)
       Radiation Loss to Boundaries:        -0.002 kW
       Mesh    7
       Max CFL number:  0.21E-01 at ( 126,   1,  36)
       Max divergence:  0.32E-05 at (  85,   3,  55)
       Min divergence: -0.15E-05 at ( 126,   1,  34)
       Max VN number:   0.55E-02 at ( 122,   5,  32)
       Mesh    8
       Max CFL number:  0.17E-01 at (  95,   6,  13)
       Max divergence:  0.32E-05 at (  85,   7,  55)
       Min divergence: -0.13E-05 at ( 121,   7,  12)
       Max VN number:   0.45E-02 at (  95,   4,  13)
 
       Time Step       8   December 20, 2017  13:51:03
       Step Size:    0.647E-01 s, Total Time:       0.53 s
       Pressure Iterations:     10
       Maximum Velocity Error:  0.18E+00 on Mesh   6 at (   0  65   4)
       Maximum Pressure Error:  0.58E-01 on Mesh   1 at (  41  15  53)
       ---------------------------------------------------------------
       Mesh    1
       Max CFL number:  0.87E+00 at (  25,  19,  16)
       Max divergence:  0.49E-04 at (  63,  13,  16)
       Min divergence: -0.73E-04 at (  24,  18,  13)
       Max VN number:   0.28E+00 at (  62,  13,  17)
       Mesh    2
       Max CFL number:  0.11E+00 at (   8,  12,  17)
       Max divergence:  0.17E-04 at ( 116,  65,  34)
       Min divergence: -0.11E-04 at ( 116,  64,  20)
       Max VN number:   0.45E-01 at (   8,  13,  17)
       Radiation Loss to Boundaries:        -0.002 kW
       Mesh    3
       Max CFL number:  0.97E-01 at (  18,  12,  18)
       Max divergence:  0.23E-05 at (  21,  14,  13)
       Min divergence: -0.22E-04 at (  18,  12,  18)
       Max VN number:   0.38E-01 at (  18,   5,  17)
       Mesh    4
       Max CFL number:  0.10E+00 at (  18,   5,  18)
       Max divergence:  0.22E-05 at (  21,   2,  12)
       Min divergence: -0.22E-04 at (  18,   5,  18)
       Max VN number:   0.35E-01 at (  18,   5,  17)
       Mesh    5
       Max CFL number:  0.52E-01 at (  21,   1,  17)
       Max divergence:  0.23E-05 at (  21,  35,  12)
       Min divergence: -0.14E-05 at (  11,  34,  10)
       Max VN number:   0.11E-01 at (  21,   1,  17)
       Mesh    6
       Max CFL number:  0.39E+00 at (   5,  54,  17)
       Max divergence:  0.57E-04 at (   7,  56,  16)
       Min divergence: -0.50E-05 at (   2,  65,  17)
       Max VN number:   0.19E+00 at (   9,  54,  17)
       Radiation Loss to Boundaries:        -0.002 kW
       Mesh    7
       Max CFL number:  0.26E-01 at ( 126,   1,  36)
       Max divergence:  0.41E-05 at (  85,   3,  55)
       Min divergence: -0.19E-05 at ( 126,   1,  34)
       Max VN number:   0.59E-02 at ( 122,   5,  32)
       Mesh    8
       Max CFL number:  0.17E-01 at (  95,   6,  13)
       Max divergence:  0.38E-05 at (  85,   7,  55)
       Min divergence: -0.13E-05 at ( 121,   7,  12)
       Max VN number:   0.53E-02 at (  85,   3,  56)
 
       Time Step       9   December 20, 2017  13:51:08
       Step Size:    0.647E-01 s, Total Time:       0.59 s
       Pressure Iterations:     10
       Maximum Velocity Error:  0.18E+00 on Mesh   6 at (   0  65   4)
       Maximum Pressure Error:  0.73E-01 on Mesh   1 at (  22  50  17)
       ---------------------------------------------------------------
       Mesh    1
       Max CFL number:  0.86E+00 at (  24,  18,  16)
       Max divergence:  0.53E-04 at (  63,  13,  16)
       Min divergence: -0.70E-04 at (  25,  52,  13)
       Max VN number:   0.30E+00 at (  22,  50,  14)
       Mesh    2
       Max CFL number:  0.14E+00 at (   8,  12,  17)
       Max divergence:  0.22E-04 at ( 116,  65,  34)
       Min divergence: -0.11E-04 at ( 116,  64,  20)
       Max VN number:   0.64E-01 at (   8,  13,  17)
       Radiation Loss to Boundaries:        -0.002 kW
       Mesh    3
       Max CFL number:  0.10E+00 at (  18,  12,  18)
       Max divergence:  0.22E-05 at (  21,  14,  13)
       Min divergence: -0.23E-04 at (  18,  12,  18)
       Max VN number:   0.39E-01 at (  18,   5,  17)
       Mesh    4
       Max CFL number:  0.10E+00 at (  18,   5,  18)
       Max divergence:  0.22E-05 at (  21,   2,  12)
       Min divergence: -0.23E-04 at (  18,   5,  18)
       Max VN number:   0.37E-01 at (  18,   5,  17)
       Mesh    5
       Max CFL number:  0.52E-01 at (  21,   1,  17)
       Max divergence:  0.23E-05 at (  21,  35,  12)
       Min divergence: -0.15E-05 at (  11,  34,  10)
       Max VN number:   0.11E-01 at (  21,   1,  17)
       Mesh    6
       Max CFL number:  0.39E+00 at (   5,  54,  17)
       Max divergence:  0.57E-04 at (   7,  56,  16)
       Min divergence: -0.47E-05 at (   2,  65,  17)
       Max VN number:   0.19E+00 at (   9,  54,  17)
       Radiation Loss to Boundaries:        -0.002 kW
       Mesh    7
       Max CFL number:  0.31E-01 at ( 126,   1,  36)
       Max divergence:  0.48E-05 at (  85,   3,  55)
       Min divergence: -0.21E-05 at ( 126,   1,  34)
       Max VN number:   0.85E-02 at ( 126,   1,  36)
       Mesh    8
       Max CFL number:  0.18E-01 at (  85,   7,  55)
       Max divergence:  0.43E-05 at (  85,   7,  55)
       Min divergence: -0.13E-05 at ( 121,   7,  12)
       Max VN number:   0.61E-02 at (  85,   3,  56)
 
       Time Step      10   December 20, 2017  13:51:14
       Step Size:    0.647E-01 s, Total Time:       0.66 s
       Pressure Iterations:     10
       Maximum Velocity Error:  0.17E+00 on Mesh   6 at (   0  65   4)
       Maximum Pressure Error:  0.73E-01 on Mesh   1 at (  22  50  17)
       ---------------------------------------------------------------
       Mesh    1
       Max CFL number:  0.88E+00 at (  24,  18,  16)
       Max divergence:  0.54E-04 at (  65,  13,  16)
       Min divergence: -0.72E-04 at (  25,  17,  13)
       Max VN number:   0.31E+00 at (  22,  50,  14)
       Total Heat Release Rate:              0.001 kW
       Mesh    2
       Max CFL number:  0.16E+00 at (   8,  12,  17)
       Max divergence:  0.27E-04 at ( 116,  65,  34)
       Min divergence: -0.12E-04 at ( 112,  12,  26)
       Max VN number:   0.81E-01 at (   8,  13,  17)
       Total Heat Release Rate:              0.001 kW
       Radiation Loss to Boundaries:        -0.001 kW
       Mesh    3
       Max CFL number:  0.11E+00 at (  18,  12,  18)
       Max divergence:  0.22E-05 at (  21,  16,  14)
       Min divergence: -0.24E-04 at (  18,  12,  18)
       Max VN number:   0.40E-01 at (  18,   5,  17)
       Mesh    4
       Max CFL number:  0.11E+00 at (  18,   5,  18)
       Max divergence:  0.22E-05 at (  21,   2,  12)
       Min divergence: -0.24E-04 at (  18,   5,  18)
       Max VN number:   0.39E-01 at (  18,   5,  17)
       Mesh    5
       Max CFL number:  0.52E-01 at (  21,   1,  17)
       Max divergence:  0.22E-05 at (  21,  35,  12)
       Min divergence: -0.15E-05 at (  11,  36,  12)
       Max VN number:   0.11E-01 at (  21,   1,  17)
       Mesh    6
       Max CFL number:  0.39E+00 at (   5,  54,  17)
       Max divergence:  0.58E-04 at (   7,  56,  16)
       Min divergence: -0.41E-05 at (   2,  65,  17)
       Max VN number:   0.19E+00 at (   9,  11,  17)
       Mesh    7
       Max CFL number:  0.36E-01 at ( 126,   1,  36)
       Max divergence:  0.56E-05 at (  85,   3,  55)
       Min divergence: -0.23E-05 at ( 126,   1,  34)
       Max VN number:   0.11E-01 at ( 126,   1,  36)
       Mesh    8
       Max CFL number:  0.21E-01 at ( 122,   7,  32)
       Max divergence:  0.49E-05 at (  85,   7,  55)
       Min divergence: -0.12E-05 at ( 121,   7,  12)
       Max VN number:   0.69E-02 at (  85,   3,  56)
 
       Time Step      20   December 20, 2017  13:51:53
       Step Size:    0.647E-01 s, Total Time:       1.30 s
       Pressure Iterations:      2
       Maximum Velocity Error:  0.78E-01 on Mesh   2 at ( 117  65  34)
       Maximum Pressure Error:  0.52E-01 on Mesh   1 at (  36   6  17)
       ---------------------------------------------------------------
       Mesh    1
       Max CFL number:  0.10E+01 at (  25,  18,  16)
       Max divergence:  0.13E-03 at ( 123,  38,   4)
       Min divergence: -0.67E-04 at (  28,  52,  12)
       Max VN number:   0.31E+00 at (  28,  18,  17)
       Total Heat Release Rate:              0.005 kW
       Mesh    2
       Max CFL number:  0.19E+00 at (   9,  13,  17)
       Max divergence:  0.99E-04 at (   1,  39,   4)
       Min divergence: -0.14E-04 at ( 111,  12,  26)
       Max VN number:   0.13E+00 at (   9,  13,  17)
       Total Heat Release Rate:              0.005 kW
       Mesh    3
       Max CFL number:  0.15E+00 at (  18,  12,  17)
       Max divergence:  0.20E-05 at (  21,  16,  14)
       Min divergence: -0.39E-04 at (  18,  12,  17)
       Max VN number:   0.64E-01 at (  18,  12,  17)
       Mesh    4
       Max CFL number:  0.13E+00 at (  18,   5,  17)
       Max divergence:  0.21E-05 at (  21,   2,  15)
       Min divergence: -0.33E-04 at (  18,   5,  17)
       Max VN number:   0.57E-01 at (  18,   5,  17)
       Mesh    5
       Max CFL number:  0.59E-01 at (  21,   1,  17)
       Max divergence:  0.22E-05 at (  21,  35,  12)
       Min divergence: -0.16E-05 at (  14,   1,  13)
       Max VN number:   0.16E-01 at (   1,   7,   4)
       Mesh    6
       Max CFL number:  0.39E+00 at (   5,  11,  17)
       Max divergence:  0.56E-04 at (   7,  13,  16)
       Min divergence: -0.20E-05 at (   1,  64,  15)
       Max VN number:   0.18E+00 at (   9,  11,  17)
       Mesh    7
       Max CFL number:  0.72E-01 at ( 126,   1,  36)
       Max divergence:  0.16E-04 at (  85,  12,  55)
       Min divergence: -0.63E-05 at ( 126,   1,  34)
       Max VN number:   0.29E-01 at ( 126,   1,  36)
       Mesh    8
       Max CFL number:  0.55E-01 at (  85,   3,  55)
       Max divergence:  0.14E-04 at (  85,  11,  55)
       Min divergence: -0.13E-05 at ( 121,   7,  12)
       Max VN number:   0.21E-01 at (  85,  11,  54)
 
       Time Step      30   December 20, 2017  13:52:27
       Step Size:    0.571E-01 s, Total Time:       1.92 s
       Pressure Iterations:      1
       Maximum Velocity Error:  0.75E-01 on Mesh   2 at ( 117  65  34)
       Maximum Pressure Error:  0.51E-01 on Mesh   1 at (  22  19  17)
       ---------------------------------------------------------------
       Mesh    1
       Max CFL number:  0.88E+00 at (  25,  18,  16)
       Max divergence:  0.92E-04 at (  28,  20,  14)
       Min divergence: -0.78E-04 at (  30,  18,  13)
       Max VN number:   0.27E+00 at (  31,  18,  17)
       Total Heat Release Rate:              0.007 kW
       Mesh    2
       Max CFL number:  0.15E+00 at ( 113,  11,  27)
       Max divergence:  0.64E-04 at (  10,  41,   4)
       Min divergence: -0.18E-04 at (   8,  12,  18)
       Max VN number:   0.72E-01 at (  10,  13,  17)
       Total Heat Release Rate:              0.007 kW
       Mesh    3
       Max CFL number:  0.14E+00 at (  18,  12,  17)
       Max divergence:  0.27E-05 at (  21,  11,  16)
       Min divergence: -0.43E-04 at (  18,  12,  17)
       Max VN number:   0.66E-01 at (  18,  12,  17)
       Mesh    4
       Max CFL number:  0.11E+00 at (  18,   5,  17)
       Max divergence:  0.24E-05 at (  21,   4,  15)
       Min divergence: -0.35E-04 at (  18,   5,  17)
       Max VN number:   0.55E-01 at (  18,   5,  17)
       Mesh    5
       Max CFL number:  0.54E-01 at (  21,   1,  17)
       Max divergence:  0.21E-05 at (  21,  35,  12)
       Min divergence: -0.18E-05 at (  14,   1,  13)
       Max VN number:   0.14E-01 at (   1,   7,   4)
       Mesh    6
       Max CFL number:  0.34E+00 at (   5,  13,  17)
       Max divergence:  0.52E-04 at (   7,  13,  16)
       Min divergence: -0.32E-05 at (   1,  64,  17)
       Max VN number:   0.16E+00 at (   9,  15,  17)
       Mesh    7
       Max CFL number:  0.66E-01 at ( 126,   1,  35)
       Max divergence:  0.16E-04 at (  24,  12,  55)
       Min divergence: -0.65E-05 at ( 126,   1,  34)
       Max VN number:   0.25E-01 at (  24,  12,  54)
       Mesh    8
       Max CFL number:  0.51E-01 at (  24,   3,  55)
       Max divergence:  0.15E-04 at (  24,   3,  55)
       Min divergence: -0.14E-05 at ( 121,   7,  12)
       Max VN number:   0.20E-01 at (  24,   3,  54)
 
       Time Step      40   December 20, 2017  13:58:02
       Step Size:    0.571E-01 s, Total Time:       2.49 s
       Pressure Iterations:      1
       Maximum Velocity Error:  0.59E-01 on Mesh   2 at ( 117  65  34)
       Maximum Pressure Error:  0.45E-01 on Mesh   1 at (  35  15  17)
       ---------------------------------------------------------------
       Mesh    1
       Max CFL number:  0.87E+00 at (  25,  18,  16)
       Max divergence:  0.16E-03 at ( 116,  37,   4)
       Min divergence: -0.85E-04 at (  32,  18,  12)
       Max VN number:   0.26E+00 at (  29,  17,  17)
       Total Heat Release Rate:              0.015 kW
       Mesh    2
       Max CFL number:  0.13E+00 at ( 113,  11,  28)
       Max divergence:  0.15E-03 at (  11,  37,   4)
       Min divergence: -0.22E-04 at (   9,  12,  18)
       Max VN number:   0.86E-01 at (   8,  12,  17)
       Total Heat Release Rate:              0.017 kW
       Mesh    3
       Max CFL number:  0.14E+00 at (  18,  12,  16)
       Max divergence:  0.40E-05 at (  21,  11,  16)
       Min divergence: -0.42E-04 at (  18,  12,  16)
       Max VN number:   0.63E-01 at (  18,  12,  16)
       Mesh    4
       Max CFL number:  0.12E+00 at (  18,   5,  16)
       Max divergence:  0.40E-05 at (   1,  12,  34)
       Min divergence: -0.35E-04 at (  18,   5,  16)
       Max VN number:   0.53E-01 at (  18,   5,  16)
       Mesh    5
       Max CFL number:  0.52E-01 at (  21,   1,  17)
       Max divergence:  0.21E-05 at (  21,  35,  13)
       Min divergence: -0.18E-05 at (  12,   2,  11)
       Max VN number:   0.12E-01 at (   1,   7,   4)
       Mesh    6
       Max CFL number:  0.34E+00 at (   5,  14,  17)
       Max divergence:  0.55E-04 at (   7,  13,  16)
       Min divergence: -0.35E-05 at (   1,  64,  17)
       Max VN number:   0.16E+00 at (   9,  15,  17)
       Mesh    7
       Max CFL number:  0.60E-01 at (  24,  12,  54)
       Max divergence:  0.17E-04 at (  24,  12,  55)
       Min divergence: -0.27E-05 at ( 125,   1,  34)
       Max VN number:   0.28E-01 at (  25,  12,  54)
       Mesh    8
       Max CFL number:  0.54E-01 at (  24,   3,  55)
       Max divergence:  0.15E-04 at (  24,  11,  55)
       Min divergence: -0.14E-05 at ( 117,   4,  12)
       Max VN number:   0.24E-01 at (  25,   3,  54)
 
       Time Step      50   December 20, 2017  13:58:34
       Step Size:    0.571E-01 s, Total Time:       3.06 s
       Pressure Iterations:      1
       Maximum Velocity Error:  0.62E-01 on Mesh   1 at (  30  17  18)
       Maximum Pressure Error:  0.43E-01 on Mesh   1 at (  69  12  43)
       ---------------------------------------------------------------
       Mesh    1
       Max CFL number:  0.82E+00 at (  30,  18,  16)
       Max divergence:  0.48E-03 at ( 123,  38,   4)
       Min divergence: -0.85E-04 at (  35,  17,  11)
       Max VN number:   0.26E+00 at (  22,  50,  13)
       Total Heat Release Rate:              0.038 kW
       Mesh    2
       Max CFL number:  0.16E+00 at (   9,  57,  17)
       Max divergence:  0.38E-03 at (  11,  37,   4)
       Min divergence: -0.31E-04 at (   9,  12,  17)
       Max VN number:   0.86E-01 at (   9,  56,  17)
       Total Heat Release Rate:              0.040 kW
       Mesh    3
       Max CFL number:  0.12E+00 at (  18,  12,  16)
       Max divergence:  0.47E-05 at (  21,   7,  16)
       Min divergence: -0.36E-04 at (  18,  12,  16)
       Max VN number:   0.55E-01 at (  18,  12,  16)
       Mesh    4
       Max CFL number:  0.11E+00 at (  18,   5,  16)
       Max divergence:  0.52E-05 at (   1,  12,  34)
       Min divergence: -0.33E-04 at (  18,   5,  16)
       Max VN number:   0.50E-01 at (  18,   5,  16)
       Mesh    5
       Max CFL number:  0.50E-01 at (  21,   1,  17)
       Max divergence:  0.22E-05 at (  21,  35,  13)
       Min divergence: -0.18E-05 at (  10,   1,  14)
       Max VN number:   0.11E-01 at (   1,  31,  17)
       Mesh    6
       Max CFL number:  0.34E+00 at (   7,  56,  17)
       Max divergence:  0.60E-04 at (   7,  56,  16)
       Min divergence: -0.31E-05 at (   1,  64,  17)
       Max VN number:   0.17E+00 at (   9,  15,  17)
       Mesh    7
       Max CFL number:  0.58E-01 at (  24,  12,  54)
       Max divergence:  0.15E-04 at (  23,  12,  55)
       Min divergence: -0.55E-05 at (  85,  12,  55)
       Max VN number:   0.30E-01 at (  25,  12,  54)
       Mesh    8
       Max CFL number:  0.49E-01 at (  24,  10,  54)
       Max divergence:  0.13E-04 at (  23,   3,  55)
       Min divergence: -0.48E-05 at (  85,   3,  55)
       Max VN number:   0.23E-01 at (  25,   3,  54)
 
       Time Step      60   December 20, 2017  13:59:07
       Step Size:    0.571E-01 s, Total Time:       3.64 s
       Pressure Iterations:      1
       Maximum Velocity Error:  0.79E-01 on Mesh   1 at (  34  16  17)
       Maximum Pressure Error:  0.44E-01 on Mesh   7 at (  73   3  26)
       ---------------------------------------------------------------
       Mesh    1
       Max CFL number:  0.84E+00 at (  36,  17,  17)
       Max divergence:  0.11E-02 at ( 123,  38,   4)
       Min divergence: -0.83E-04 at (  37,  18,  11)
       Max VN number:   0.30E+00 at (  40,  51,  17)
       Total Heat Release Rate:              0.075 kW
       Mesh    2
       Max CFL number:  0.17E+00 at (  10,  57,  17)
       Max divergence:  0.70E-03 at (   1,  39,   4)
       Min divergence: -0.24E-04 at (   9,  12,  17)
       Max VN number:   0.98E-01 at (   9,  56,  17)
       Total Heat Release Rate:              0.063 kW
       Mesh    3
       Max CFL number:  0.10E+00 at (  18,  12,  16)
       Max divergence:  0.62E-05 at (  17,  11,  16)
       Min divergence: -0.31E-04 at (  18,  12,  16)
       Max VN number:   0.45E-01 at (  17,  11,  16)
       Mesh    4
       Max CFL number:  0.95E-01 at (  18,   5,  16)
       Max divergence:  0.57E-05 at (   1,  12,  34)
       Min divergence: -0.29E-04 at (  18,   5,  16)
       Max VN number:   0.43E-01 at (  18,   5,  16)
       Mesh    5
       Max CFL number:  0.49E-01 at (  21,  36,  17)
       Max divergence:  0.24E-05 at (  21,  35,  13)
       Min divergence: -0.15E-05 at (  10,   1,  14)
       Max VN number:   0.11E-01 at (  19,  31,  17)
       Mesh    6
       Max CFL number:  0.34E+00 at (   5,  54,  17)
       Max divergence:  0.63E-04 at (   7,  56,  16)
       Min divergence: -0.31E-05 at (   8,  61,  17)
       Max VN number:   0.17E+00 at (   9,  15,  17)
       Mesh    7
       Max CFL number:  0.84E-01 at ( 126,   1,  35)
       Max divergence:  0.12E-04 at ( 126,   1,  34)
       Min divergence: -0.13E-04 at (  85,  12,  55)
       Max VN number:   0.50E-01 at ( 126,   1,  35)
       Mesh    8
       Max CFL number:  0.48E-01 at (  85,   3,  55)
       Max divergence:  0.60E-05 at (  23,   3,  56)
       Min divergence: -0.13E-04 at (  85,   3,  55)
       Max VN number:   0.16E-01 at (  85,   3,  54)
 
       Time Step      70   December 20, 2017  13:59:41
       Step Size:    0.571E-01 s, Total Time:       4.21 s
       Pressure Iterations:      2
       Maximum Velocity Error:  0.86E-01 on Mesh   2 at (   0  45  12)
       Maximum Pressure Error:  0.60E-01 on Mesh   1 at ( 121  37   4)
       ---------------------------------------------------------------
       Mesh    1
       Max CFL number:  0.91E+00 at (  41,  51,  14)
       Max divergence:  0.95E-03 at ( 123,  38,   4)
       Min divergence: -0.65E-04 at (  40,  50,  12)
       Max VN number:   0.30E+00 at (  42,  51,  17)
       Total Heat Release Rate:              0.081 kW
       Mesh    2
       Max CFL number:  0.15E+00 at (  11,  57,  17)
       Max divergence:  0.71E-03 at (   1,  38,   4)
       Min divergence: -0.15E-04 at (  87,  12,  16)
       Max VN number:   0.77E-01 at (  10,  56,  17)
       Total Heat Release Rate:              0.074 kW
       Mesh    3
       Max CFL number:  0.98E-01 at (  18,  12,  16)
       Max divergence:  0.76E-05 at (  17,  11,  16)
       Min divergence: -0.30E-04 at (  18,  12,  16)
       Max VN number:   0.45E-01 at (  17,  11,  16)
       Mesh    4
       Max CFL number:  0.92E-01 at (  18,   5,  17)
       Max divergence:  0.59E-05 at (  21,   4,  15)
       Min divergence: -0.28E-04 at (  18,   5,  17)
       Max VN number:   0.39E-01 at (  17,   6,  16)
       Mesh    5
       Max CFL number:  0.48E-01 at (  21,  36,  17)
       Max divergence:  0.24E-05 at (  21,  35,  13)
       Min divergence: -0.12E-05 at (  12,   2,  10)
       Max VN number:   0.11E-01 at (  19,  31,  17)
       Mesh    6
       Max CFL number:  0.34E+00 at (   5,  13,  17)
       Max divergence:  0.60E-04 at (   7,  56,  16)
       Min divergence: -0.33E-05 at (   8,  61,  17)
       Max VN number:   0.17E+00 at (   9,  15,  17)
       Mesh    7
       Max CFL number:  0.12E+00 at ( 126,   1,  36)
       Max divergence:  0.16E-04 at ( 126,   1,  34)
       Min divergence: -0.21E-04 at ( 126,   1,  37)
       Max VN number:   0.77E-01 at ( 126,   1,  36)
       Mesh    8
       Max CFL number:  0.66E-01 at (  85,   3,  55)
       Max divergence:  0.20E-05 at (  24,   3,  57)
       Min divergence: -0.17E-04 at (  85,   3,  55)
       Max VN number:   0.22E-01 at (  85,   3,  54)
 
       Time Step      80   December 20, 2017  14:00:14
       Step Size:    0.571E-01 s, Total Time:       4.78 s
       Pressure Iterations:      2
       Maximum Velocity Error:  0.78E-01 on Mesh   2 at (   0  45  12)
       Maximum Pressure Error:  0.75E-01 on Mesh   1 at ( 121  37   4)
       ---------------------------------------------------------------
       Mesh    1
       Max CFL number:  0.10E+01 at (  42,  51,  15)
       Max divergence:  0.51E-03 at ( 116,  39,   4)
       Min divergence: -0.76E-04 at (  44,  47,  13)
       Max VN number:   0.29E+00 at (  44,  51,  17)
       Total Heat Release Rate:              0.059 kW
       Mesh    2
       Max CFL number:  0.12E+00 at (  11,  58,  17)
       Max divergence:  0.45E-03 at (  10,  41,   4)
       Min divergence: -0.21E-04 at (   9,  57,  18)
       Max VN number:   0.70E-01 at (   8,  57,  17)
       Total Heat Release Rate:              0.064 kW
       Mesh    3
       Max CFL number:  0.94E-01 at (  18,  12,  16)
       Max divergence:  0.78E-05 at (  17,  11,  16)
       Min divergence: -0.30E-04 at (  18,  12,  16)
       Max VN number:   0.43E-01 at (  17,  11,  16)
       Mesh    4
       Max CFL number:  0.95E-01 at (  18,   5,  16)
       Max divergence:  0.59E-05 at (  21,   4,  15)
       Min divergence: -0.28E-04 at (  18,   5,  16)
       Max VN number:   0.39E-01 at (  18,   5,  17)
       Mesh    5
       Max CFL number:  0.46E-01 at (  21,   1,  16)
       Max divergence:  0.25E-05 at (  21,   1,  15)
       Min divergence: -0.13E-05 at (   9,  34,   9)
       Max VN number:   0.96E-02 at (  21,  36,  17)
       Mesh    6
       Max CFL number:  0.34E+00 at (   6,  13,  17)
       Max divergence:  0.58E-04 at (   7,  13,  16)
       Min divergence: -0.29E-05 at (   8,   8,  17)
       Max VN number:   0.16E+00 at (   9,  15,  17)
       Mesh    7
       Max CFL number:  0.12E+00 at ( 126,   1,  36)
       Max divergence:  0.15E-04 at ( 126,   1,  34)
       Min divergence: -0.24E-04 at ( 126,   1,  37)
       Max VN number:   0.84E-01 at ( 126,   1,  35)
       Mesh    8
       Max CFL number:  0.69E-01 at (  24,   3,  55)
       Max divergence:  0.12E-05 at ( 125,   2,  58)
       Min divergence: -0.18E-04 at (  24,   3,  55)
       Max VN number:   0.28E-01 at (  24,  11,  54)
 
       Time Step      90   December 20, 2017  14:00:48
       Step Size:    0.571E-01 s, Total Time:       5.35 s
       Pressure Iterations:      1
       Maximum Velocity Error:  0.71E-01 on Mesh   2 at (   0  45  13)
       Maximum Pressure Error:  0.64E-01 on Mesh   1 at (  11   7  53)
       ---------------------------------------------------------------
       Mesh    1
       Max CFL number:  0.89E+00 at (  45,  51,  15)
       Max divergence:  0.57E-03 at ( 116,  40,   4)
       Min divergence: -0.63E-04 at (  45,  49,  14)
       Max VN number:   0.27E+00 at (  45,  51,  17)
       Total Heat Release Rate:              0.047 kW
       Mesh    2
       Max CFL number:  0.13E+00 at (   9,  57,  17)
       Max divergence:  0.52E-03 at (  11,  41,   4)
       Min divergence: -0.32E-04 at (   9,  57,  17)
       Max VN number:   0.93E-01 at (   8,  57,  17)
       Total Heat Release Rate:              0.041 kW
       Mesh    3
       Max CFL number:  0.88E-01 at (  18,  12,  16)
       Max divergence:  0.69E-05 at (  17,  11,  16)
       Min divergence: -0.29E-04 at (  18,  12,  16)
       Max VN number:   0.42E-01 at (  18,  12,  16)
       Mesh    4
       Max CFL number:  0.97E-01 at (  18,   5,  16)
       Max divergence:  0.58E-05 at (  21,   3,  15)
       Min divergence: -0.30E-04 at (  18,   5,  16)
       Max VN number:   0.41E-01 at (  18,   5,  16)
       Mesh    5
       Max CFL number:  0.47E-01 at (  21,  36,  16)
       Max divergence:  0.29E-05 at (  21,   1,  15)
       Min divergence: -0.14E-05 at (   9,  34,   9)
       Max VN number:   0.94E-02 at (  21,   2,  17)
       Mesh    6
       Max CFL number:  0.34E+00 at (   9,  13,  17)
       Max divergence:  0.56E-04 at (   7,  13,  16)
       Min divergence: -0.23E-05 at (  12,  56,  17)
       Max VN number:   0.16E+00 at (   9,  54,  17)
       Mesh    7
       Max CFL number:  0.95E-01 at ( 126,   1,  36)
       Max divergence:  0.12E-04 at ( 126,   1,  34)
       Min divergence: -0.22E-04 at (  24,  11,  54)
       Max VN number:   0.72E-01 at ( 126,   1,  35)
       Mesh    8
       Max CFL number:  0.73E-01 at (  24,   4,  54)
       Max divergence:  0.13E-05 at (  86,   3,  54)
       Min divergence: -0.19E-04 at (  24,   4,  54)
       Max VN number:   0.27E-01 at (  24,  11,  56)
 
       Time Step     100   December 20, 2017  14:01:21
       Step Size:    0.629E-01 s, Total Time:       5.95 s
       Pressure Iterations:      1
       Maximum Velocity Error:  0.37E-01 on Mesh   1 at (   0   5  38)
       Maximum Pressure Error:  0.57E-01 on Mesh   8 at (  58  11  35)
       ---------------------------------------------------------------
       Mesh    1
       Max CFL number:  0.83E+00 at (  48,  20,  14)
       Max divergence:  0.70E-03 at ( 116,  41,   4)
       Min divergence: -0.61E-04 at (  23,  19,  13)
       Max VN number:   0.30E+00 at (  47,  51,  17)
       Total Heat Release Rate:              0.054 kW
       Mesh    2
       Max CFL number:  0.14E+00 at (   9,  57,  17)
       Max divergence:  0.62E-03 at (  11,  41,   4)
       Min divergence: -0.36E-04 at (   9,  57,  17)
       Max VN number:   0.98E-01 at (   8,  57,  17)
       Total Heat Release Rate:              0.029 kW
       Mesh    3
       Max CFL number:  0.90E-01 at (  18,  12,  16)
       Max divergence:  0.70E-05 at (  21,  14,  16)
       Min divergence: -0.27E-04 at (  18,  12,  16)
       Max VN number:   0.45E-01 at (  18,  12,  16)
       Mesh    4
       Max CFL number:  0.11E+00 at (  18,   5,  16)
       Max divergence:  0.67E-05 at (  21,   3,  16)
       Min divergence: -0.31E-04 at (  18,   5,  16)
       Max VN number:   0.48E-01 at (  18,   5,  16)
       Mesh    5
       Max CFL number:  0.55E-01 at (  21,  36,  16)
       Max divergence:  0.33E-05 at (  21,   1,  15)
       Min divergence: -0.13E-05 at (   9,  34,   9)
       Max VN number:   0.11E-01 at (  19,  31,  17)
       Mesh    6
       Max CFL number:  0.38E+00 at (   9,  13,  17)
       Max divergence:  0.58E-04 at (   7,  56,  16)
       Min divergence: -0.40E-05 at (   9,  56,  17)
       Max VN number:   0.18E+00 at (   5,  54,  17)
       Mesh    7
       Max CFL number:  0.93E-01 at ( 126,   1,  36)
       Max divergence:  0.96E-05 at ( 126,   1,  34)
       Min divergence: -0.24E-04 at (  24,  11,  54)
       Max VN number:   0.65E-01 at ( 126,   1,  35)
       Mesh    8
       Max CFL number:  0.70E-01 at (  24,   4,  54)
       Max divergence:  0.24E-05 at (  85,   3,  56)
       Min divergence: -0.19E-04 at (  24,   4,  54)
       Max VN number:   0.30E-01 at (  24,  11,  56)
 
       Time Step     200   December 20, 2017  14:06:50
       Step Size:    0.691E-01 s, Total Time:      12.81 s
       Pressure Iterations:      1
       Maximum Velocity Error:  0.84E-01 on Mesh   2 at (   0  45  13)
       Maximum Pressure Error:  0.42E-01 on Mesh   2 at (  11  40   4)
       ---------------------------------------------------------------
       Mesh    1
       Max CFL number:  0.93E+00 at (  25,  18,  16)
       Max divergence:  0.32E-02 at ( 116,  40,   4)
       Min divergence: -0.73E-04 at (  23,  50,  13)
       Max VN number:   0.30E+00 at (  23,  19,  17)
       Total Heat Release Rate:              0.464 kW
       Radiation Loss to Boundaries:        -0.078 kW
       Mesh    2
       Max CFL number:  0.12E+00 at (  32,  35,   6)
       Max divergence:  0.27E-02 at (  11,  40,   4)
       Min divergence: -0.41E-03 at (   1,  38,   5)
       Max VN number:   0.49E-01 at (  32,  34,   4)
       Total Heat Release Rate:              0.477 kW
       Radiation Loss to Boundaries:        -0.094 kW
       Mesh    3
       Max CFL number:  0.92E-01 at (  20,  13,  15)
       Max divergence:  0.75E-05 at (  13,  13,  13)
       Min divergence: -0.25E-04 at (  18,  12,  17)
       Max VN number:   0.44E-01 at (  20,  12,  17)
       Mesh    4
       Max CFL number:  0.94E-01 at (  20,   4,  15)
       Max divergence:  0.67E-05 at (  13,   4,  13)
       Min divergence: -0.26E-04 at (  18,   5,  17)
       Max VN number:   0.42E-01 at (  20,   5,  17)
       Mesh    5
       Max CFL number:  0.60E-01 at (  21,  36,  16)
       Max divergence:  0.34E-05 at (  21,   1,  13)
       Min divergence: -0.12E-05 at (  13,  17,  11)
       Max VN number:   0.13E-01 at (  21,  35,  17)
       Mesh    6
       Max CFL number:  0.41E+00 at (   9,  56,  17)
       Max divergence:  0.57E-04 at (   7,  13,  16)
       Min divergence: -0.14E-04 at (   5,  58,  17)
       Max VN number:   0.22E+00 at (   5,  11,  17)
       Mesh    7
       Max CFL number:  0.30E+00 at ( 124,   1,  36)
       Max divergence:  0.21E-04 at ( 122,   1,  37)
       Min divergence: -0.17E-04 at ( 126,   1,  38)
       Max VN number:   0.89E-01 at ( 123,   1,  35)
       Mesh    8
       Max CFL number:  0.46E-01 at (  24,   6,  53)
       Max divergence:  0.33E-05 at (  84,   3,  54)
       Min divergence: -0.11E-04 at (  24,   6,  53)
       Max VN number:   0.20E-01 at (  22,   9,  56)
 
       Time Step     300   December 20, 2017  14:12:17
       Step Size:    0.691E-01 s, Total Time:      19.72 s
       Pressure Iterations:      1
       Maximum Velocity Error:  0.86E-01 on Mesh   1 at (  28  53  17)
       Maximum Pressure Error:  0.24E+00 on Mesh   2 at (   5  39   4)
       ---------------------------------------------------------------
       Mesh    1
       Max CFL number:  0.99E+00 at (  28,  51,  16)
       Max divergence:  0.10E-01 at ( 123,  40,   4)
       Min divergence: -0.23E-02 at ( 120,  39,   9)
       Max VN number:   0.31E+00 at (  30,  52,  17)
       Total Heat Release Rate:              1.211 kW
       Radiation Loss to Boundaries:        -0.221 kW
       Mesh    2
       Max CFL number:  0.16E+00 at (  10,  39,   7)
       Max divergence:  0.94E-02 at (   1,  40,   4)
       Min divergence: -0.29E-02 at (   9,  39,   7)
       Max VN number:   0.54E-01 at (   4,  39,   5)
       Total Heat Release Rate:              1.360 kW
       Radiation Loss to Boundaries:        -0.262 kW
       Mesh    3
       Max CFL number:  0.85E-01 at (  20,   5,  17)
       Max divergence:  0.10E-04 at (  11,  13,  14)
       Min divergence: -0.19E-04 at (  18,  12,  16)
       Max VN number:   0.43E-01 at (  19,   8,  17)
       Mesh    4
       Max CFL number:  0.96E-01 at (  20,  12,  17)
       Max divergence:  0.98E-05 at (  19,  11,  17)
       Min divergence: -0.29E-04 at (  19,  12,  16)
       Max VN number:   0.44E-01 at (  19,  11,  17)
       Mesh    5
       Max CFL number:  0.56E-01 at (  21,  36,  16)
       Max divergence:  0.41E-05 at (  21,  36,  13)
       Min divergence: -0.10E-05 at (  14,  36,  16)
       Max VN number:   0.15E-01 at (  21,  35,  17)
       Mesh    6
       Max CFL number:  0.41E+00 at (   9,  57,  17)
       Max divergence:  0.68E-04 at (   9,  56,  16)
       Min divergence: -0.22E-04 at (   6,  57,  17)
       Max VN number:   0.21E+00 at (   5,  58,  17)
       Mesh    7
       Max CFL number:  0.16E+00 at ( 113,   1,  36)
       Max divergence:  0.15E-04 at ( 120,   1,  35)
       Min divergence: -0.19E-04 at ( 126,   1,  37)
       Max VN number:   0.54E-01 at ( 111,   1,  36)
       Mesh    8
       Max CFL number:  0.40E-01 at (  84,   4,  54)
       Max divergence:  0.65E-05 at (  84,   3,  56)
       Min divergence: -0.41E-05 at (  24,   4,  52)
       Max VN number:   0.22E-01 at (  84,   4,  54)
 
       Time Step     400   December 20, 2017  14:17:47
       Step Size:    0.691E-01 s, Total Time:      26.64 s
       Pressure Iterations:      1
       Maximum Velocity Error:  0.83E-01 on Mesh   1 at (  30  53  17)
       Maximum Pressure Error:  0.32E+00 on Mesh   2 at (  10  39   4)
       ---------------------------------------------------------------
       Mesh    1
       Max CFL number:  0.98E+00 at (  26,  51,  16)
       Max divergence:  0.22E-01 at ( 122,  38,   4)
       Min divergence: -0.57E-02 at ( 122,  39,   5)
       Max VN number:   0.31E+00 at (  28,  52,  17)
       Total Heat Release Rate:              2.208 kW
       Radiation Loss to Boundaries:        -0.313 kW
       Mesh    2
       Max CFL number:  0.25E+00 at (   3,  38,  10)
       Max divergence:  0.16E-01 at (   7,  38,   4)
       Min divergence: -0.38E-02 at (  10,  39,   5)
       Max VN number:   0.12E+00 at (   9,  40,  13)
       Total Heat Release Rate:              2.512 kW
       Radiation Loss to Boundaries:        -0.378 kW
       Mesh    3
       Max CFL number:  0.11E+00 at (  18,  12,  17)
       Max divergence:  0.72E-05 at (  21,  13,  16)
       Min divergence: -0.33E-04 at (  18,  12,  17)
       Max VN number:   0.55E-01 at (  18,  12,  17)
       Mesh    4
       Max CFL number:  0.11E+00 at (  21,   4,  17)
       Max divergence:  0.87E-05 at (  21,   3,  16)
       Min divergence: -0.30E-04 at (  18,   5,  17)
       Max VN number:   0.50E-01 at (  18,   5,  17)
       Mesh    5
       Max CFL number:  0.58E-01 at (  21,  36,  17)
       Max divergence:  0.39E-05 at (  21,  36,  13)
       Min divergence: -0.11E-05 at (   1,  12,  16)
       Max VN number:   0.14E-01 at (  21,  36,  17)
       Mesh    6
       Max CFL number:  0.41E+00 at (   5,  15,  17)
       Max divergence:  0.68E-04 at (   9,  56,  16)
       Min divergence: -0.14E-04 at (   9,  56,  17)
       Max VN number:   0.22E+00 at (   5,  11,  17)
       Mesh    7
       Max CFL number:  0.10E+00 at ( 112,   1,  35)
       Max divergence:  0.12E-04 at ( 118,   1,  35)
       Min divergence: -0.20E-04 at ( 126,   1,  36)
       Max VN number:   0.36E-01 at ( 125,   1,  35)
       Mesh    8
       Max CFL number:  0.27E-01 at (  82,   4,  55)
       Max divergence:  0.50E-05 at (  21,  11,  57)
       Min divergence: -0.40E-05 at (  24,  11,  56)
       Max VN number:   0.14E-01 at (  23,   7,  54)
 
       Time Step     500   December 20, 2017  14:23:19
       Step Size:    0.619E-01 s, Total Time:      33.54 s
       Pressure Iterations:      1
       Maximum Velocity Error:  0.66E-01 on Mesh   1 at (  28  16  17)
       Maximum Pressure Error:  0.41E+00 on Mesh   2 at (   9  37   4)
       ---------------------------------------------------------------
       Mesh    1
       Max CFL number:  0.89E+00 at (  27,  18,  16)
       Max divergence:  0.29E-01 at ( 122,  40,   4)
       Min divergence: -0.11E-01 at ( 121,  38,   5)
       Max VN number:   0.28E+00 at (  30,  17,  17)
       Total Heat Release Rate:              3.509 kW
       Radiation Loss to Boundaries:        -0.399 kW
       Mesh    2
       Max CFL number:  0.26E+00 at (   1,  38,  10)
       Max divergence:  0.26E-01 at (   1,  39,   4)
       Min divergence: -0.67E-02 at (   1,  38,   9)
       Max VN number:   0.15E+00 at (   2,  37,  13)
       Total Heat Release Rate:              3.970 kW
       Radiation Loss to Boundaries:        -0.528 kW
       Mesh    3
       Max CFL number:  0.89E-01 at (  20,  12,  15)
       Max divergence:  0.10E-04 at (  21,  13,  16)
       Min divergence: -0.22E-04 at (  18,  12,  17)
       Max VN number:   0.35E-01 at (  21,  13,  17)
       Mesh    4
       Max CFL number:  0.84E-01 at (  21,   5,  16)
       Max divergence:  0.11E-04 at (  19,  11,  17)
       Min divergence: -0.21E-04 at (  18,  12,  16)
       Max VN number:   0.34E-01 at (  18,   5,  17)
       Mesh    5
       Max CFL number:  0.53E-01 at (  21,  36,  16)
       Max divergence:  0.39E-05 at (  21,   1,  13)
       Min divergence: -0.96E-06 at (  17,  35,  16)
       Max VN number:   0.13E-01 at (  21,  35,  17)
       Mesh    6
       Max CFL number:  0.37E+00 at (   9,  11,  17)
       Max divergence:  0.65E-04 at (   9,  57,  16)
       Min divergence: -0.28E-04 at (   6,  11,  17)
       Max VN number:   0.19E+00 at (   5,  11,  17)
       Mesh    7
       Max CFL number:  0.13E+00 at ( 126,   1,  36)
       Max divergence:  0.13E-04 at ( 116,   1,  37)
       Min divergence: -0.13E-04 at ( 124,   1,  32)
       Max VN number:   0.50E-01 at ( 126,   1,  36)
       Mesh    8
       Max CFL number:  0.27E-01 at (  23,  10,  55)
       Max divergence:  0.24E-05 at (  84,   3,  53)
       Min divergence: -0.82E-05 at (  24,  11,  55)
       Max VN number:   0.12E-01 at (  24,  11,  56)
 
       Time Step     600   December 20, 2017  14:28:41
       Step Size:    0.619E-01 s, Total Time:      39.74 s
       Pressure Iterations:      1
       Maximum Velocity Error:  0.50E-01 on Mesh   1 at (  32  53  17)
       Maximum Pressure Error:  0.63E+00 on Mesh   2 at (   7  37   4)
       ---------------------------------------------------------------
       Mesh    1
       Max CFL number:  0.83E+00 at (  27,  51,  16)
       Max divergence:  0.46E-01 at ( 123,  39,   4)
       Min divergence: -0.15E-01 at ( 123,  38,   5)
       Max VN number:   0.29E+00 at (  23,  20,  14)
       Total Heat Release Rate:              4.929 kW
       Radiation Loss to Boundaries:        -0.501 kW
       Mesh    2
       Max CFL number:  0.33E+00 at (   1,  37,   9)
       Max divergence:  0.38E-01 at (   7,  38,   4)
       Min divergence: -0.16E-01 at (   7,  37,   5)
       Max VN number:   0.25E+00 at (   1,  39,  13)
       Total Heat Release Rate:              5.597 kW
       Radiation Loss to Boundaries:        -0.732 kW
       Mesh    3
       Max CFL number:  0.11E+00 at (  18,  12,  17)
       Max divergence:  0.96E-05 at (  21,  13,  16)
       Min divergence: -0.33E-04 at (  18,  12,  17)
       Max VN number:   0.46E-01 at (  18,  12,  17)
       Mesh    4
       Max CFL number:  0.90E-01 at (  20,   4,  15)
       Max divergence:  0.89E-05 at (  19,  11,  17)
       Min divergence: -0.26E-04 at (  19,   9,  15)
       Max VN number:   0.44E-01 at (  20,   9,  16)
       Mesh    5
       Max CFL number:  0.61E-01 at (  21,  36,  15)
       Max divergence:  0.35E-05 at (  21,   1,  14)
       Min divergence: -0.12E-05 at (   9,   3,  14)
       Max VN number:   0.15E-01 at (  20,  36,  17)
       Mesh    6
       Max CFL number:  0.37E+00 at (   5,  13,  17)
       Max divergence:  0.66E-04 at (   9,  14,  16)
       Min divergence: -0.16E-04 at (   6,  11,  17)
       Max VN number:   0.19E+00 at (   5,  11,  17)
       Mesh    7
       Max CFL number:  0.99E-01 at ( 122,   1,  35)
       Max divergence:  0.94E-05 at ( 117,   1,  37)
       Min divergence: -0.14E-04 at ( 109,   1,  35)
       Max VN number:   0.25E-01 at ( 121,   1,  36)
       Mesh    8
       Max CFL number:  0.29E-01 at (  23,   3,  55)
       Max divergence:  0.74E-05 at (  23,   3,  55)
       Min divergence: -0.18E-05 at (  24,  13,  57)
       Max VN number:   0.97E-02 at (  84,   4,  53)
 
       Time Step     700   December 20, 2017  14:34:05
       Step Size:    0.681E-01 s, Total Time:      46.09 s
       Pressure Iterations:      1
       Maximum Velocity Error:  0.70E-01 on Mesh   1 at (  31  52  18)
       Maximum Pressure Error:  0.84E+00 on Mesh   1 at ( 122  38   4)
       ---------------------------------------------------------------
       Mesh    1
       Max CFL number:  0.93E+00 at (  28,  51,  16)
       Max divergence:  0.66E-01 at ( 121,  39,   4)
       Min divergence: -0.25E-01 at ( 122,  38,   6)
       Max VN number:   0.33E+00 at (  23,  20,  14)
       Total Heat Release Rate:              6.751 kW
       Radiation Loss to Boundaries:        -0.731 kW
       Mesh    2
       Max CFL number:  0.37E+00 at (   7,  47,  13)
       Max divergence:  0.50E-01 at (   6,  39,   4)
       Min divergence: -0.15E-01 at (   7,  39,   5)
       Max VN number:   0.19E+00 at (   7,  56,  16)
       Total Heat Release Rate:              7.248 kW
       Radiation Loss to Boundaries:        -0.810 kW
       Mesh    3
       Max CFL number:  0.93E-01 at (  20,  12,  15)
       Max divergence:  0.88E-05 at (  21,  14,  16)
       Min divergence: -0.23E-04 at (  18,  12,  17)
       Max VN number:   0.40E-01 at (  18,  12,  17)
       Mesh    4
       Max CFL number:  0.10E+00 at (  21,  11,  17)
       Max divergence:  0.11E-04 at (  18,  11,  16)
       Min divergence: -0.25E-04 at (  18,  10,  15)
       Max VN number:   0.44E-01 at (  21,   4,  17)
       Mesh    5
       Max CFL number:  0.62E-01 at (  21,  36,  16)
       Max divergence:  0.34E-05 at (  21,   3,  13)
       Min divergence: -0.11E-05 at (  21,   3,  17)
       Max VN number:   0.15E-01 at (  21,  35,  17)
       Mesh    6
       Max CFL number:  0.41E+00 at (   9,  12,  17)
       Max divergence:  0.68E-04 at (   9,  56,  16)
       Min divergence: -0.39E-04 at (   6,  11,  17)
       Max VN number:   0.21E+00 at (   5,  11,  17)
       Mesh    7
       Max CFL number:  0.16E+00 at ( 126,   1,  36)
       Max divergence:  0.32E-04 at ( 126,   1,  34)
       Min divergence: -0.29E-04 at ( 126,   1,  37)
       Max VN number:   0.11E+00 at ( 126,   1,  35)
       Mesh    8
       Max CFL number:  0.22E-01 at (  84,   4,  54)
       Max divergence:  0.55E-05 at (  23,   3,  55)
       Min divergence: -0.24E-05 at (  21,   8,  55)
       Max VN number:   0.94E-02 at (  84,   4,  53)
 
       Time Step     800   December 20, 2017  14:39:33
       Step Size:    0.681E-01 s, Total Time:      52.91 s
       Pressure Iterations:      1
       Maximum Velocity Error:  0.90E-01 on Mesh   1 at (  32  53  17)
       Maximum Pressure Error:  0.61E+00 on Mesh   1 at ( 120  36   4)
       ---------------------------------------------------------------
       Mesh    1
       Max CFL number:  0.93E+00 at (  29,  51,  16)
       Max divergence:  0.70E-01 at ( 121,  38,   4)
       Min divergence: -0.30E-01 at ( 120,  36,  10)
       Max VN number:   0.33E+00 at (  23,  20,  14)
       Total Heat Release Rate:              9.023 kW
       Radiation Loss to Boundaries:        -1.119 kW
       Mesh    2
       Max CFL number:  0.44E+00 at (   3,  37,   9)
       Max divergence:  0.66E-01 at (   3,  38,   4)
       Min divergence: -0.18E-01 at (   5,  38,   6)
       Max VN number:   0.17E+00 at (   7,  46,  12)
       Total Heat Release Rate:              9.526 kW
[...]
       Max VN number:   0.17E+00 at (  51,  12,  39)
       Radiation Loss to Boundaries:        -7.963 kW
       Mesh    8
       Max CFL number:  0.37E+00 at (  72,   5,  67)
       Max divergence:  0.76E-01 at (  85,   5,  55)
       Min divergence: -0.54E-01 at (  84,   6,  55)
       Max VN number:   0.15E+00 at (  51,   3,  39)
       Radiation Loss to Boundaries:        -6.109 kW
 
       Time Step   23100   December 21, 2017  16:22:28
       Step Size:    0.197E-01 s, Total Time:     720.75 s
       Pressure Iterations:      7
       Maximum Velocity Error:  0.77E-01 on Mesh   1 at ( 117  35   4)
       Maximum Pressure Error:  0.34E+03 on Mesh   1 at ( 117  36   4)
       ---------------------------------------------------------------
       Mesh    1
       Max CFL number:  0.78E+00 at ( 117,  36,   4)
       Max divergence:  0.11E+02 at ( 117,  38,   4)
       Min divergence: -0.31E+01 at ( 118,  37,   7)
       Max VN number:   0.83E+00 at ( 117,  36,   4)
       Total Heat Release Rate:           1138.307 kW
       Radiation Loss to Boundaries:      -728.431 kW
       Mesh    2
       Max CFL number:  0.78E+00 at (   4,  36,  11)
       Max divergence:  0.76E+01 at (   5,  38,   4)
       Min divergence: -0.18E+01 at (   6,  36,   8)
       Max VN number:   0.42E+00 at (   3,  36,  13)
       Total Heat Release Rate:           1122.660 kW
       Radiation Loss to Boundaries:      -211.757 kW
       Mesh    3
       Max CFL number:  0.42E-01 at (  18,  10,  25)
       Max divergence:  0.15E-02 at (  18,  10,  25)
       Min divergence: -0.17E-02 at (  18,  12,  17)
       Max VN number:   0.21E-01 at (  18,  10,  20)
       Radiation Loss to Boundaries:        -0.506 kW
       Mesh    4
       Max CFL number:  0.90E-01 at (  19,   6,   9)
       Max divergence:  0.66E-02 at (  17,   4,  17)
       Min divergence: -0.36E-02 at (  18,   6,  17)
       Max VN number:   0.48E-01 at (  16,   5,  12)
       Radiation Loss to Boundaries:        -1.004 kW
       Mesh    5
       Max CFL number:  0.73E-01 at (  16,  31,   4)
       Max divergence:  0.35E-02 at (   3,  31,   4)
       Min divergence: -0.18E-02 at (  17,  34,  11)
       Max VN number:   0.33E-01 at (  19,  31,   4)
       Radiation Loss to Boundaries:        -0.237 kW
       Mesh    6
       Max CFL number:  0.12E+00 at (   7,  58,  17)
       Max divergence:  0.39E-02 at (   4,  58,  17)
       Min divergence: -0.45E-02 at (   1,  64,   5)
       Max VN number:   0.63E-01 at (   9,  56,  17)
       Radiation Loss to Boundaries:        -0.556 kW
       Mesh    7
       Max CFL number:  0.32E+00 at (  59,   7,  68)
       Max divergence:  0.60E-01 at (  64,  12,  56)
       Min divergence: -0.65E-01 at (  63,  11,  54)
       Max VN number:   0.16E+00 at (  39,   3,  46)
       Radiation Loss to Boundaries:        -7.927 kW
       Mesh    8
       Max CFL number:  0.33E+00 at (  71,   5,  68)
       Max divergence:  0.57E-01 at (  73,   3,  52)
       Min divergence: -0.53E-01 at (  82,   5,  59)
       Max VN number:   0.14E+00 at (  51,  11,  39)
       Radiation Loss to Boundaries:        -6.142 kW
 
       Time Step   23200   December 21, 2017  16:29:37
       Step Size:    0.211E-01 s, Total Time:     722.85 s
       Pressure Iterations:      4
       Maximum Velocity Error:  0.20E+00 on Mesh   2 at (   0  45   9)
       Maximum Pressure Error:  0.38E+03 on Mesh   2 at (   4  36   8)
       ---------------------------------------------------------------
       Mesh    1
       Max CFL number:  0.80E+00 at ( 108,  36,   9)
       Max divergence:  0.80E+01 at ( 117,  37,   4)
       Min divergence: -0.17E+01 at ( 110,  36,   8)
       Max VN number:   0.38E+00 at ( 109,  36,   8)
       Total Heat Release Rate:           1112.847 kW
       Radiation Loss to Boundaries:      -678.756 kW
       Mesh    2
       Max CFL number:  0.89E+00 at (   4,  36,   8)
       Max divergence:  0.70E+01 at (   1,  37,   4)
       Min divergence: -0.24E+01 at (   4,  37,  13)
       Max VN number:   0.48E+00 at (   4,  36,  13)
       Total Heat Release Rate:           1241.363 kW
       Radiation Loss to Boundaries:      -293.219 kW
       Mesh    3
       Max CFL number:  0.44E-01 at (   1,  10,  33)
       Max divergence:  0.36E-02 at (  18,  11,  24)
       Min divergence: -0.14E-02 at (  18,  10,  24)
       Max VN number:   0.25E-01 at (  18,  11,  24)
       Radiation Loss to Boundaries:        -0.506 kW
       Mesh    4
       Max CFL number:  0.11E+00 at (   1,  12,  16)
       Max divergence:  0.73E-02 at (  17,   4,  17)
       Min divergence: -0.32E-02 at (  18,   4,  16)
       Max VN number:   0.50E-01 at (  18,   5,  11)
       Radiation Loss to Boundaries:        -1.006 kW
       Mesh    5
       Max CFL number:  0.77E-01 at (  13,  31,   4)
       Max divergence:  0.28E-02 at (  18,  35,  10)
       Min divergence: -0.25E-02 at (  14,  34,  10)
       Max VN number:   0.33E-01 at (  21,  33,   4)
       Radiation Loss to Boundaries:        -0.236 kW
       Mesh    6
       Max CFL number:  0.13E+00 at (   7,  57,  17)
       Max divergence:  0.39E-02 at (   1,  63,   7)
       Min divergence: -0.43E-02 at (   1,  64,   8)
       Max VN number:   0.65E-01 at (   5,  13,  17)
       Radiation Loss to Boundaries:        -0.556 kW
       Mesh    7
       Max CFL number:  0.34E+00 at (  64,   7,  68)
       Max divergence:  0.65E-01 at (  61,  12,  63)
       Min divergence: -0.51E-01 at (  54,   9,  62)
       Max VN number:   0.17E+00 at (  39,   3,  46)
       Radiation Loss to Boundaries:        -7.942 kW
       Mesh    8
       Max CFL number:  0.35E+00 at (  70,   5,  67)
       Max divergence:  0.59E-01 at (  69,   5,  66)
       Min divergence: -0.73E-01 at (  81,   5,  60)
       Max VN number:   0.15E+00 at (  39,  11,  46)
       Radiation Loss to Boundaries:        -6.049 kW
 
       Time Step   23300   December 21, 2017  16:36:45
       Step Size:    0.199E-01 s, Total Time:     724.84 s
       Pressure Iterations:      4
       Maximum Velocity Error:  0.17E+00 on Mesh   2 at (   0  45  10)
       Maximum Pressure Error:  0.42E+03 on Mesh   1 at ( 115  37   4)
       ---------------------------------------------------------------
       Mesh    1
       Max CFL number:  0.84E+00 at ( 117,  36,   4)
       Max divergence:  0.84E+01 at ( 115,  37,   4)
       Min divergence: -0.32E+01 at ( 114,  36,   6)
       Max VN number:   0.36E+00 at ( 113,  36,   5)
       Total Heat Release Rate:           1148.045 kW
       Radiation Loss to Boundaries:      -720.622 kW
       Mesh    2
       Max CFL number:  0.82E+00 at (   5,  36,  11)
       Max divergence:  0.61E+01 at (   1,  37,   4)
       Min divergence: -0.16E+01 at (   5,  40,   5)
       Max VN number:   0.46E+00 at (   4,  36,  13)
       Total Heat Release Rate:           1246.754 kW
       Radiation Loss to Boundaries:      -257.253 kW
       Mesh    3
       Max CFL number:  0.55E-01 at (   1,  11,  33)
       Max divergence:  0.19E-02 at (  19,   9,  16)
       Min divergence: -0.17E-02 at (   1,  10,  34)
       Max VN number:   0.20E-01 at (  18,  10,  24)
       Radiation Loss to Boundaries:        -0.507 kW
       Mesh    4
       Max CFL number:  0.10E+00 at (   6,  12,  12)
       Max divergence:  0.74E-02 at (  16,   4,  11)
       Min divergence: -0.48E-02 at (  16,   4,  12)
       Max VN number:   0.51E-01 at (   6,  12,  11)
       Radiation Loss to Boundaries:        -0.996 kW
       Mesh    5
       Max CFL number:  0.77E-01 at (  19,  36,   4)
       Max divergence:  0.37E-02 at (  14,  35,  13)
       Min divergence: -0.27E-02 at (  14,  35,  15)
       Max VN number:   0.34E-01 at (  19,  31,   4)
       Radiation Loss to Boundaries:        -0.243 kW
       Mesh    6
       Max CFL number:  0.12E+00 at (   5,  12,  17)
       Max divergence:  0.37E-02 at (   1,  63,   7)
       Min divergence: -0.39E-02 at (   1,  64,   8)
       Max VN number:   0.65E-01 at (   9,  58,  17)
       Radiation Loss to Boundaries:        -0.556 kW
       Mesh    7
       Max CFL number:  0.33E+00 at (  61,   5,  64)
       Max divergence:  0.89E-01 at (  74,  12,  54)
       Min divergence: -0.60E-01 at (  75,  10,  64)
       Max VN number:   0.16E+00 at (  44,   3,  43)
       Radiation Loss to Boundaries:        -7.973 kW
       Mesh    8
       Max CFL number:  0.33E+00 at (  76,   6,  63)
       Max divergence:  0.46E-01 at (  84,   6,  56)
       Min divergence: -0.45E-01 at (  74,   3,  56)
       Max VN number:   0.15E+00 at (  58,   3,  35)
       Radiation Loss to Boundaries:        -6.110 kW
 
       Time Step   23400   December 21, 2017  16:43:50
       Step Size:    0.205E-01 s, Total Time:     726.88 s
       Pressure Iterations:      4
       Maximum Velocity Error:  0.18E+00 on Mesh   2 at (   0  45   7)
       Maximum Pressure Error:  0.40E+03 on Mesh   2 at (   5  41   4)
       ---------------------------------------------------------------
       Mesh    1
       Max CFL number:  0.80E+00 at ( 119,  36,   4)
       Max divergence:  0.75E+01 at ( 121,  37,   4)
       Min divergence: -0.20E+01 at ( 113,  36,   5)
       Max VN number:   0.63E+00 at ( 116,  36,   6)
       Total Heat Release Rate:           1104.076 kW
       Radiation Loss to Boundaries:      -694.964 kW
       Mesh    2
       Max CFL number:  0.81E+00 at (   5,  36,  10)
       Max divergence:  0.77E+01 at (   4,  37,   4)
       Min divergence: -0.19E+01 at (   5,  36,   7)
       Max VN number:   0.48E+00 at (   6,  37,  13)
       Total Heat Release Rate:           1163.726 kW
       Radiation Loss to Boundaries:      -248.372 kW
       Mesh    3
       Max CFL number:  0.65E-01 at (   4,   9,  34)
       Max divergence:  0.19E-02 at (   7,  10,  34)
       Min divergence: -0.20E-02 at (   4,   9,  34)
       Max VN number:   0.21E-01 at (   5,   9,  34)
       Radiation Loss to Boundaries:        -0.511 kW
       Mesh    4
       Max CFL number:  0.12E+00 at (  14,  11,   9)
       Max divergence:  0.58E-02 at (  16,   4,  17)
       Min divergence: -0.42E-02 at (   5,  11,  19)
       Max VN number:   0.54E-01 at (  10,  12,   9)
       Radiation Loss to Boundaries:        -0.989 kW
       Mesh    5
       Max CFL number:  0.76E-01 at (  19,  34,   4)
       Max divergence:  0.39E-02 at (   1,  31,  11)
       Min divergence: -0.28E-02 at (  15,  35,  11)
       Max VN number:   0.52E-01 at (  21,  31,   4)
       Radiation Loss to Boundaries:        -0.252 kW
       Mesh    6
       Max CFL number:  0.12E+00 at (   5,  14,  17)
       Max divergence:  0.40E-02 at (  12,  63,   4)
       Min divergence: -0.47E-02 at (   4,  13,  17)
       Max VN number:   0.66E-01 at (   9,  56,  17)
       Radiation Loss to Boundaries:        -0.559 kW
       Mesh    7
       Max CFL number:  0.35E+00 at (  65,   5,  68)
       Max divergence:  0.63E-01 at (  64,   9,  61)
       Min divergence: -0.67E-01 at (  65,  12,  56)
       Max VN number:   0.16E+00 at (  44,   3,  43)
       Radiation Loss to Boundaries:        -7.845 kW
       Mesh    8
       Max CFL number:  0.29E+00 at (  77,  11,  65)
       Max divergence:  0.44E-01 at (  84,   9,  56)
       Min divergence: -0.48E-01 at (  77,  11,  65)
       Max VN number:   0.15E+00 at (  39,   3,  46)
       Radiation Loss to Boundaries:        -6.187 kW
 
       Time Step   23500   December 21, 2017  16:50:58
       Step Size:    0.185E-01 s, Total Time:     728.91 s
       Pressure Iterations:      4
       Maximum Velocity Error:  0.16E+00 on Mesh   2 at (   0  45  10)
       Maximum Pressure Error:  0.38E+03 on Mesh   2 at (   6  41   4)
       ---------------------------------------------------------------
       Mesh    1
       Max CFL number:  0.71E+00 at ( 107,  37,  13)
       Max divergence:  0.74E+01 at ( 121,  39,   4)
       Min divergence: -0.24E+01 at ( 119,  37,   5)
       Max VN number:   0.32E+00 at ( 118,  37,   4)
       Total Heat Release Rate:           1135.638 kW
       Radiation Loss to Boundaries:      -694.805 kW
       Mesh    2
       Max CFL number:  0.91E+00 at (   2,  36,  10)
       Max divergence:  0.62E+01 at (   4,  40,   4)
       Min divergence: -0.19E+01 at (   3,  36,   8)
       Max VN number:   0.56E+00 at (   2,  37,  13)
       Total Heat Release Rate:           1196.011 kW
       Radiation Loss to Boundaries:      -239.864 kW
       Mesh    3
       Max CFL number:  0.63E-01 at (   6,   8,  34)
       Max divergence:  0.13E-02 at (  18,  12,  23)
       Min divergence: -0.24E-02 at (   9,   9,  34)
       Max VN number:   0.20E-01 at (   7,   8,  34)
       Radiation Loss to Boundaries:        -0.520 kW
       Mesh    4
       Max CFL number:  0.99E-01 at (  11,  11,  11)
       Max divergence:  0.62E-02 at (  19,   5,  17)
       Min divergence: -0.38E-02 at (  20,   5,  16)
       Max VN number:   0.41E-01 at (  16,  12,   6)
       Radiation Loss to Boundaries:        -0.982 kW
       Mesh    5
       Max CFL number:  0.69E-01 at (  20,  36,   4)
       Max divergence:  0.50E-02 at (   9,  31,   8)
       Min divergence: -0.35E-02 at (   9,  31,   9)
       Max VN number:   0.40E-01 at (  21,  31,   4)
       Radiation Loss to Boundaries:        -0.254 kW
       Mesh    6
       Max CFL number:  0.11E+00 at (   5,  14,  17)
       Max divergence:  0.37E-02 at (  10,  64,   4)
       Min divergence: -0.53E-02 at (   1,  64,   8)
       Max VN number:   0.59E-01 at (   9,  55,  17)
       Radiation Loss to Boundaries:        -0.559 kW
       Mesh    7
       Max CFL number:  0.31E+00 at (  56,  10,  67)
       Max divergence:  0.56E-01 at (  58,  10,  56)
       Min divergence: -0.67E-01 at (  66,  12,  56)
       Max VN number:   0.15E+00 at (  39,  12,  46)
       Radiation Loss to Boundaries:        -7.965 kW
       Mesh    8
       Max CFL number:  0.29E+00 at (  71,   4,  65)
       Max divergence:  0.41E-01 at (  77,   2,  62)
       Min divergence: -0.59E-01 at (  77,   8,  48)
       Max VN number:   0.14E+00 at (  58,   3,  35)
       Radiation Loss to Boundaries:        -6.172 kW
 
       Time Step   23600   December 21, 2017  17:41:57
       Step Size:    0.213E-01 s, Total Time:     731.00 s
       Pressure Iterations:      4
       Maximum Velocity Error:  0.21E+00 on Mesh   2 at (   0  45   9)
       Maximum Pressure Error:  0.48E+03 on Mesh   2 at (   7  40   4)
       ---------------------------------------------------------------
       Mesh    1
       Max CFL number:  0.79E+00 at ( 118,  36,   4)
       Max divergence:  0.19E+02 at ( 117,  37,   4)
       Min divergence: -0.17E+01 at ( 113,  37,   5)
       Max VN number:   0.39E+00 at ( 110,  48,  12)
       Total Heat Release Rate:           1329.493 kW
       Radiation Loss to Boundaries:      -761.400 kW
       Mesh    2
       Max CFL number:  0.92E+00 at (   5,  36,   9)
       Max divergence:  0.78E+01 at (   5,  39,   4)
       Min divergence: -0.25E+01 at (   5,  37,   6)
       Max VN number:   0.55E+00 at (   5,  36,  13)
       Total Heat Release Rate:           1158.432 kW
       Radiation Loss to Boundaries:      -239.233 kW
       Mesh    3
       Max CFL number:  0.65E-01 at (  10,  11,  34)
       Max divergence:  0.20E-02 at (  16,   8,  34)
       Min divergence: -0.21E-02 at (  18,  12,  16)
       Max VN number:   0.24E-01 at (  11,  11,  34)
       Radiation Loss to Boundaries:        -0.532 kW
       Mesh    4
       Max CFL number:  0.11E+00 at (  19,  11,   7)
       Max divergence:  0.65E-02 at (   1,   5,  19)
       Min divergence: -0.38E-02 at (   9,   4,  16)
       Max VN number:   0.47E-01 at (   7,   5,  16)
       Radiation Loss to Boundaries:        -0.971 kW
       Mesh    5
       Max CFL number:  0.78E-01 at (  21,  36,   4)
       Max divergence:  0.46E-02 at (   7,  31,   7)
       Min divergence: -0.23E-02 at (   3,  31,   6)
       Max VN number:   0.38E-01 at (  20,  32,   4)
       Radiation Loss to Boundaries:        -0.251 kW
       Mesh    6
       Max CFL number:  0.13E+00 at (   5,  14,  17)
       Max divergence:  0.50E-02 at (   1,  64,   4)
       Min divergence: -0.66E-02 at (   1,  64,   5)
       Max VN number:   0.73E-01 at (   5,  11,  17)
       Radiation Loss to Boundaries:        -0.558 kW
       Mesh    7
       Max CFL number:  0.38E+00 at (  64,   3,  68)
       Max divergence:  0.76E-01 at (  77,  11,  56)
       Min divergence: -0.65E-01 at (  78,   3,  61)
       Max VN number:   0.18E+00 at (  39,   3,  46)
       Radiation Loss to Boundaries:        -7.966 kW
       Mesh    8
       Max CFL number:  0.37E+00 at (  72,   9,  67)
       Max divergence:  0.55E-01 at (  78,   6,  50)
       Min divergence: -0.61E-01 at (  78,   6,  48)
       Max VN number:   0.16E+00 at (  39,   3,  46)
       Radiation Loss to Boundaries:        -6.174 kW
 
       Time Step   23700   December 21, 2017  17:50:28
       Step Size:    0.199E-01 s, Total Time:     732.99 s
       Pressure Iterations:      4
       Maximum Velocity Error:  0.18E+00 on Mesh   2 at (   0  45   9)
       Maximum Pressure Error:  0.44E+03 on Mesh   2 at (   7  39   4)
       ---------------------------------------------------------------
       Mesh    1
       Max CFL number:  0.84E+00 at ( 120,  36,   4)
       Max divergence:  0.12E+02 at ( 114,  36,   4)
       Min divergence: -0.24E+01 at ( 114,  36,  10)
       Max VN number:   0.43E+00 at ( 113,  36,  10)
       Total Heat Release Rate:           1187.024 kW
       Radiation Loss to Boundaries:      -793.634 kW
       Mesh    2
       Max CFL number:  0.74E+00 at (   2,  36,   8)
       Max divergence:  0.69E+01 at (   3,  38,   4)
       Min divergence: -0.24E+01 at (   5,  38,   5)
       Max VN number:   0.45E+00 at (   1,  36,   4)
       Total Heat Release Rate:           1042.869 kW
       Radiation Loss to Boundaries:      -193.233 kW
       Mesh    3
       Max CFL number:  0.58E-01 at (  15,   9,  33)
       Max divergence:  0.23E-02 at (  18,   9,  34)
       Min divergence: -0.25E-02 at (  17,   8,  34)
       Max VN number:   0.27E-01 at (  18,   7,  34)
       Radiation Loss to Boundaries:        -0.543 kW
       Mesh    4
       Max CFL number:  0.12E+00 at (  13,  11,   9)
       Max divergence:  0.65E-02 at (   2,   5,  18)
       Min divergence: -0.43E-02 at (  12,   5,  14)
       Max VN number:   0.54E-01 at (  16,  12,   6)
       Radiation Loss to Boundaries:        -0.964 kW
       Mesh    5
       Max CFL number:  0.78E-01 at (  15,  31,   4)
       Max divergence:  0.28E-02 at (  11,  31,  16)
       Min divergence: -0.35E-02 at (  11,  32,  16)
       Max VN number:   0.32E-01 at (   9,  35,  17)
       Radiation Loss to Boundaries:        -0.247 kW
       Mesh    6
       Max CFL number:  0.12E+00 at (   7,  56,  17)
       Max divergence:  0.51E-02 at (   2,  63,   4)
       Min divergence: -0.66E-02 at (   6,  58,   5)
       Max VN number:   0.66E-01 at (   9,  15,  17)
       Radiation Loss to Boundaries:        -0.559 kW
       Mesh    7
       Max CFL number:  0.31E+00 at (  78,   8,  51)
       Max divergence:  0.50E-01 at (  58,   7,  65)
       Min divergence: -0.64E-01 at (  69,  12,  57)
       Max VN number:   0.17E+00 at (  66,  11,  30)
       Radiation Loss to Boundaries:        -7.845 kW
       Mesh    8
       Max CFL number:  0.32E+00 at (  72,   4,  64)
       Max divergence:  0.60E-01 at (  76,  10,  63)
       Min divergence: -0.43E-01 at (  84,   9,  55)
       Max VN number:   0.16E+00 at (  58,   4,  35)
       Radiation Loss to Boundaries:        -6.169 kW
 
